31                                     
                                       
C    -1.521774   1.369753    -0.389194 
N    -1.579538   0.657162    0.77502   
O    -2.456674   1.41561     -1.157679 
C    -0.226217   2.126302    -0.636444 
H    -0.268937   2.453601    -1.675506 
H    -0.228602   3.02162     -0.010896 
C    1.022317    1.318393    -0.386856 
C    2.108837    1.876288    0.281633  
C    1.10436     0.001144    -0.844063 
C    3.26884     1.146083    0.487599  
H    2.050115    2.895617    0.642616  
C    2.254216    -0.742749   -0.643863 
H    0.254472    -0.453293   -1.341836 
C    3.317104    -0.152348   0.018027  
H    4.122178    1.562749    1.001931  
H    2.335473    -1.763251   -0.98817  
N    4.545517    -0.939607   0.238054  
H    -0.713897   0.494906    1.26331   
C    -2.648299   -0.286262   0.975765  
C    -4.053563   0.277535    1.162099  
H    -2.378121   -0.920576   1.823217  
C    -4.916101   -0.852403   0.597217  
H    -4.162356   1.177965    0.562918  
H    -4.291848   0.498322    2.199948  
H    -5.193384   -1.581526   1.360817  
H    -5.814012   -0.502571   0.095026  
C    -2.811856   -1.228349   -0.225501 
O    -4.107336   -1.522706   -0.381899 
O    -1.939299   -1.671875   -0.904758 
O    4.564721    -2.073201   -0.18136  
O    5.456073    -0.401172   0.825271  
