29

C    -1.02621   -0.990958    0.838809 
N    -1.13248   -0.665552   -0.483494 
O    -2.00083    -1.09908     1.55088 
C    0.383218    -1.25177     1.34731 
H    0.321269    -1.17656       2.433 
H    0.636719    -2.28685     1.10761 
C     1.43029   -0.313926     0.80242 
C     2.61346   -0.805719      0.2643 
C     1.21881       1.065    0.839776 
C     3.57194     0.07582   -0.215125 
H      2.7985     -1.8714    0.219634 
C     2.18452     1.93191    0.354769 
H    0.286003     1.45539     1.23223 
C     3.37265     1.44466    -0.17504 
Cl     5.04308   -0.555657   -0.880175 
H     2.01334     2.99981     0.38673 
H     4.13326     2.11208   -0.555425 
H   -0.288821   -0.389868   -0.959489 
C    -2.38208   -0.165353   -0.991441 
C     -3.5538     -1.1405    -1.05085 
H     -2.1932    0.261148    -1.97944 
C    -4.74759   -0.200415   -0.875627 
H    -3.48691    -1.83363   -0.216322 
H    -3.60085    -1.69596    -1.98467 
H    -5.12028     0.17568    -1.83039 
H    -5.57051   -0.644209   -0.321645 
C    -2.93146    0.982459   -0.132409 
O    -4.26914    0.919302     -0.1152 
O    -2.29703     1.83129      0.4111 
