31

C    -1.27802    -1.06421    0.775557 
N    -1.41328   -0.756474   -0.548556 
O    -2.22837    -1.08814     1.52627 
C    0.133449    -1.39733      1.2305 
H    0.089458     -1.4604     2.31765 
H    0.394563    -2.38804     0.85248 
C     1.16476   -0.385256    0.795245 
C     2.39527   -0.792857    0.299235 
C     0.89526    0.981467    0.901266 
C     3.32452    0.167576   -0.062935 
H     2.64525    -1.83945    0.193408 
C     1.84265     1.92318    0.529497 
H   -0.075104     1.30976     1.25868 
C     3.07886     1.52246    0.042669 
N     4.62885   -0.279339   -0.591352 
H     1.61474     2.97675    0.616441 
H     3.83732       2.231    -0.25533 
H    -0.57353   -0.561207    -1.06881 
C    -2.64748   -0.189173    -1.02416 
C     -3.8759    -1.09404    -1.02594 
H    -2.46741    0.209394    -2.02529 
C    -5.00545   -0.082121   -0.827278 
H    -3.82082    -1.77638   -0.181553 
H    -3.98787    -1.66123    -1.94701 
H    -5.38776    0.301717    -1.77494 
H    -5.83339   -0.466896   -0.237934 
C    -3.09863     1.00226   -0.167267 
O     -4.4345     1.01835   -0.102352 
O    -2.39606      1.8206    0.339484 
O     5.43391    0.572999   -0.885883 
O        4.81    -1.47082   -0.698359 
