31

C   -0.807693     1.27171   -0.429995 
N   -0.859662    0.436363    0.647986 
O    -1.80333     1.56755    -1.05709 
C    0.560733      1.8433    -0.77125 
H    0.526399     2.04619     -1.8423 
H    0.635954     2.81068   -0.268828 
C     1.73277     0.97118   -0.409573 
C     2.74067     1.41045     0.44065 
C     1.82975   -0.324465   -0.920857 
C     3.81645    0.598806    0.767415 
H     2.69002     2.41099    0.854894 
C      2.8945    -1.14437   -0.598283 
H     1.04557   -0.701862    -1.56946 
C     3.91016   -0.691889    0.249388 
H     4.58948    0.964867      1.4326 
H     2.94502    -2.14859    -1.00214 
N     4.95483    -1.53397    0.614741 
H    0.015777    0.079348    0.995414 
C    -2.05103   -0.328466    0.896407 
C    -3.29934    0.440188     1.31957 
H     -1.8074    -1.09381      1.6372 
C    -4.41462   -0.446182    0.762903 
H     -3.3034     1.41179     0.83272 
H    -3.37604    0.570359     2.39667 
H     -4.7424    -1.19796     1.48377 
H    -5.27878    0.113619    0.414726 
C    -2.51832    -1.08602   -0.354602 
O    -3.85845    -1.13084   -0.368677 
O    -1.82719    -1.60054    -1.17604 
H     5.14761    -2.28557   -0.027881 
H     5.79354    -1.07164    0.927321 
