33

C    -1.24664     1.32475   -0.299501 
N    -1.20615    0.360914    0.665663 
O    -2.28684     1.65601   -0.828201 
C    0.077948      1.9914   -0.641981 
H    -0.02093     2.30574    -1.68159 
H    0.140963     2.90155   -0.041005 
C     1.30231     1.14049   -0.439015 
C     2.32303     1.52144    0.416134 
C     1.42941   -0.079347    -1.11503 
C     3.45606    0.731762    0.601276 
H     2.24599     2.45956    0.953599 
C     2.54093   -0.875583   -0.941216 
H    0.632519   -0.410083     -1.7732 
C     3.56656    -0.47219   -0.082289 
H     4.23215     1.06745     1.27331 
H      2.6444     -1.8187    -1.46098 
O      4.6202    -1.31812    0.020715 
H   -0.301048    -7.4e-05    0.919951 
C    -2.35484   -0.476705    0.880178 
C    -3.60112    0.181774     1.46423 
H    -2.04228    -1.31772     1.50369 
C    -4.71648   -0.673976    0.861315 
H    -3.66714     1.20528     1.10478 
H    -3.61866    0.173965     2.55172 
H    -4.97489    -1.52263     1.49785 
H    -5.61839   -0.111445    0.634491 
C    -2.86904    -1.09048   -0.429935 
O    -4.20516    -1.18851   -0.376585 
O    -2.20989      -1.468    -1.34635 
C     5.68251   -0.943865     0.86785 
H       5.346   -0.841977     1.90328 
H     6.41785    -1.74118    0.804243 
H     6.13601   -0.004057    0.541465 
