32

C    -1.92096     1.40452   -0.311846 
N    -1.89677    0.576386     0.77442 
O    -2.89933     1.50144    -1.01986 
C    -0.66162     2.22309    -0.55028 
H   -0.738594     2.58681    -1.57512 
H   -0.697541     3.09432    0.107603 
C    0.625567     1.46558   -0.346506 
C     1.66826      2.0084    0.393577 
C     0.78576    0.200031   -0.917605 
C     2.86059      1.3144    0.559371 
H     1.55305     2.98721    0.843068 
C      1.9683   -0.496932    -0.75372 
H   -0.029997   -0.246472    -1.47628 
C     3.00564    0.064694   -0.016295 
H     3.66974     1.74498     1.13278 
H     2.08941    -1.47699    -1.19748 
C     4.26939   -0.726543    0.164569 
H    -1.00018     0.38893     1.19303 
C     -2.9293   -0.413364    0.933109 
C    -4.33672    0.086465     1.24401 
H    -2.59936    -1.11926     1.69894 
C     -5.1987      -1.009    0.614372 
H    -4.49933     1.03697    0.742374 
H    -4.52554    0.197885     2.30922 
H    -5.41642    -1.81697     1.31547 
H    -6.13078   -0.639591    0.195196 
C    -3.13154    -1.23853   -0.345711 
O    -4.42641    -1.55605   -0.465442 
O     -2.2854    -1.58776    -1.10793 
F     4.06612    -1.80942    0.929634 
F      4.7473    -1.17009     -1.0047 
F     5.23815   -0.012747    0.745494 
