21   
   
O -1.89924 1.3435 -0.329944
C -2.18777 0.097321 0.022142
C -1.24943 -0.865303 0.173408
C 0.139363 -0.559499 -0.045113
N 0.604061 0.580209 -0.402325
C 2.0653 0.483037 -0.418908
C 2.67167 1.32561 0.693587
H 2.37665 2.36847 0.583088
H 3.76126 1.26637 0.673905
H 2.31976 0.970111 1.66395
H 2.43997 0.828412 -1.38376
C 2.31135 -1.02944 -0.24215
H 2.60928 -1.52179 -1.16844
H 3.03237 -1.25877 0.541593
O 1.03461 -1.55336 0.151597
H -1.52389 -1.86746 0.458408
C -3.64556 -0.130297 0.23124
H -4.18526 0.106325 -0.686846
H -3.8482 -1.15888 0.517896
H -4.00999 0.54395 1.00763
H -0.912897 1.41208 -0.449601
