36   
   
O -1.8041216455182556 1.2309876855306314 -0.4593110081224326
C -2.055295423167107 -0.005691903559639786 -0.09851362153804627
C 2.365114944652733 2.159663085979048 1.3137673322253267
C 0.14709959336464112 -0.5680366569366013 -0.04218038928987381
N 0.6228452752497542 0.5753015535979554 -0.3928406669166766
C 2.0719107119575964 0.44495792116271565 -0.5133670850510402
C 2.848356474057212 1.5466791384276566 0.16257955292773
C 3.1164188377186135 3.1311559002225033 1.9585396419520875
C 4.091713259728962 1.922266279902889 -0.3337533957795631
H 2.7280551221293337 3.60745693753544 2.8495703283396603
H 2.334795569975271 0.4395648270254421 -1.5754295155143596
C 2.3307078842237647 -0.94538178268863 0.11749339122052609
H 2.9845775234148406 -1.5812766298404883 -0.4742408724780081
H 2.720607300637396 -0.8556276668693436 1.1329415011379198
O 1.0349262580783383 -1.5521114622952725 0.1827205560319413
H 1.389879721395295 1.8802405183454896 1.6929778999315614
C -3.528332026401268 -0.31469410881545007 0.05353024117732457
H -3.971591228905316 1.6745486743112523 0.8237193900068878
H -5.173291305102872 0.4368256886942142 1.2278667598437307
H -3.6252008129368067 0.47447337887125757 2.080422550349764
H -0.799122444406518 1.3301147507404874 -0.5446736607619216
N -1.1612186886619478 -0.9169415431188966 0.1213234577814253
C 4.847529377734407 2.8903596540450622 0.31302234053496675
C 4.360561318956143 3.497097352329722 1.4617001983349516
H 4.94473995832258 4.256726995209306 1.9644567328480451
H 5.81289889930554 3.1755415516756806 -0.08471726271610468
H 4.468344334500564 1.4580180832775824 -1.2384300418916085
C -3.7411341431855036 -1.7639199030185173 0.47500051719051734
H -3.329656479383135 -2.4522181449914315 -0.2622825457898691
H -3.255655413415739 -1.9717084451070543 1.4277786579000196
H -4.811258265191718 -1.953047079859863 0.5756032189705977
C -4.106124117474559 0.633235455374632 1.1134690100274665
C -4.209494764290157 -0.05270919275580351 -1.2968544218438953
H -3.8015282866542663 -0.7050881685184791 -2.071056174882602
H -4.077767579688505 0.9826577425196935 -1.6083681738680182
H -5.277289193680852 -0.25800868493363266 -1.2064753287209635
