43
MD-125
O  -3.58103 -0.27999 -3.22642
C  -3.02422 -0.37933 -2.09803
C  -1.79133 -1.03059 -2.00051
O  -1.21507 -1.54098 -3.16852
C  -1.17095 -1.14931 -0.73715
C  0.17297 -1.82590 -0.57327
C  1.33633 -0.90774 -0.97863
C  1.52371 0.26038 0.00468
C  2.61491 1.25076 -0.44068
C  4.03260 0.65872 -0.53887
C  4.55246 0.12343 0.80312
C  6.02159 -0.27711 0.70333
N  -1.77464 -0.61142 0.36402
C  -2.97866 0.03672 0.29953
C  -3.58442 0.58892 1.46055
C  -2.93529 0.49425 2.81728
C  -4.82199 1.24373 1.34840
C  -5.45770 1.35742 0.11416
C  -4.87118 0.82228 -1.02992
C  -3.63248 0.16072 -0.95179
H  -0.31981 -2.00947 -3.19586
H  0.20376 -2.75957 -1.17281
H  0.31490 -2.15200 0.48018
H  1.17146 -0.51331 -2.00445
H  2.25853 -1.52571 -0.99374
H  1.74521 -0.12756 1.02123
H  0.57317 0.83112 0.07575
H  2.33672 1.66882 -1.43273
H  2.63174 2.10182 0.27472
H  4.06466 -0.14255 -1.30696
H  4.70973 1.46884 -0.88843
H  3.96834 -0.77103 1.10662
H  4.44481 0.90305 1.58833
H  6.36613 -0.67370 1.68162
H  6.64524 0.60318 0.43842
H  6.15435 -1.06652 -0.06699
H  -1.28087 -0.70410 1.27890
H  -2.80661 -0.57180 3.09974
H  -1.94622 0.99859 2.79753
H  -3.54953 0.98224 3.60383
H  -5.30087 1.67087 2.22097
H  -6.41118 1.86511 0.04388
H  -5.38925 0.92871 -1.97524
