43
MD-124
O  -3.33283 -1.95360 1.84967
C  -2.77245 -1.02985 1.19774
C  -1.37104 -0.96695 1.14397
O  -0.58708 -1.92350 1.79452
C  -0.75306 0.07119 0.42308
C  0.75021 0.14595 0.32079
C  1.25073 -0.71389 -0.84788
C  2.76426 -0.57804 -1.07516
C  3.59068 -1.22232 0.05151
C  5.08317 -1.35169 -0.30247
C  5.80331 -0.01489 -0.55395
C  5.81316 0.89860 0.67120
N  -1.51747 0.98831 -0.23786
C  -2.88032 0.95072 -0.20289
C  -3.63191 1.92087 -0.88336
C  -5.02729 1.88588 -0.84906
C  -5.69404 0.87300 -0.14621
C  -7.19293 0.86229 -0.08010
C  -4.95051 -0.09148 0.55054
C  -3.54270 -0.06583 0.52267
H  -0.99148 -2.68811 2.32165
H  1.06019 1.20258 0.16739
H  1.20782 -0.19151 1.27443
H  0.73295 -0.38989 -1.77769
H  0.99015 -1.78099 -0.67362
H  3.02350 0.49793 -1.17313
H  3.01270 -1.07713 -2.03727
H  3.47793 -0.64511 0.99216
H  3.20155 -2.24560 0.24614
H  5.59828 -1.88755 0.52450
H  5.18495 -1.98539 -1.21035
H  6.85700 -0.23765 -0.82903
H  5.34919 0.51820 -1.41542
H  4.79387 1.28511 0.87952
H  6.47696 1.76750 0.47806
H  6.19388 0.35313 1.56071
H  -1.04143 1.74086 -0.78697
H  -3.13697 2.70869 -1.43781
H  -5.58865 2.65003 -1.37259
H  -7.63027 1.31204 -0.99693
H  -7.52742 1.44461 0.80367
H  -7.57340 -0.17786 0.00582
H  -5.47318 -0.85861 1.11004
