41
MD-42
O  -3.99232 1.76462 2.22746
C  -3.39162 1.00490 1.41857
C  -2.06028 1.27638 1.06519
O  -1.38619 2.37304 1.60893
C  -1.40026 0.43004 0.15511
C  0.04053 0.67628 -0.21846
C  0.97871 -0.00152 0.79602
C  2.47907 0.04309 0.42029
C  2.97892 1.46457 0.09408
C  4.51362 1.50083 -0.05514
C  5.10952 0.18810 -0.60564
C  4.11035 -0.56626 -1.48960
C  2.83967 -0.95967 -0.70882
N  -2.04705 -0.65950 -0.35194
C  -3.33955 -0.94720 -0.02591
C  -3.97504 -2.07247 -0.57615
C  -5.29901 -2.36739 -0.24283
C  -5.99972 -1.54491 0.64124
C  -5.38079 -0.42280 1.19831
C  -4.04639 -0.11278 0.87157
H  -1.82330 3.00503 2.26889
H  0.23543 1.76922 -0.25009
H  0.22209 0.28917 -1.24186
H  0.67737 -1.06485 0.92650
H  0.84758 0.49611 1.78233
H  3.02996 -0.28599 1.33133
H  2.52302 1.80861 -0.86005
H  2.67227 2.17240 0.89494
H  4.97450 1.71254 0.93433
H  4.78490 2.34106 -0.73100
H  6.02697 0.41395 -1.19096
H  5.40657 -0.46886 0.24151
H  4.59184 -1.48044 -1.89925
H  3.83152 0.08048 -2.35072
H  2.99162 -1.96280 -0.25301
H  2.00954 -1.06507 -1.43714
H  -1.53340 -1.29138 -1.00879
H  -3.44582 -2.72074 -1.26364
H  -5.78306 -3.23571 -0.67093
H  -7.02549 -1.77794 0.89638
H  -5.94624 0.19786 1.88257
