43
MD-66
O  1.73693 -2.07080 -2.36709
C  1.63839 -1.45749 -1.26938
C  0.41249 -1.44372 -0.60223
C  0.28888 -0.76594 0.61836
C  -1.03849 -0.72076 1.33227
C  -1.70636 0.65953 1.21909
C  -2.07693 1.06883 -0.22017
C  -3.09339 0.14571 -0.92255
C  -4.42806 -0.04238 -0.17986
C  -5.19629 1.27346 0.00902
C  -6.57969 1.02186 0.60180
N  1.36879 -0.12134 1.14800
C  2.58095 -0.11612 0.52061
C  3.67090 0.55670 1.09175
C  4.91187 0.56443 0.45105
C  5.08379 -0.10276 -0.77572
O  6.31139 -0.12161 -1.45472
C  7.49676 0.51715 -0.99170
C  3.99841 -0.77528 -1.34921
C  2.74354 -0.78957 -0.71246
H  -0.43803 -1.95797 -1.03302
H  -1.72234 -1.51339 0.96121
H  -0.86501 -0.93973 2.40787
H  -1.01681 1.42732 1.63269
H  -2.61051 0.68096 1.86246
H  -2.47625 2.10497 -0.20225
H  -1.15328 1.10821 -0.83672
H  -3.30323 0.56310 -1.93148
H  -2.63579 -0.85130 -1.08833
H  -5.05226 -0.73840 -0.78225
H  -4.25713 -0.53061 0.80280
H  -5.31247 1.78630 -0.97048
H  -4.63882 1.94375 0.69699
H  -6.49038 0.52273 1.59028
H  -7.10715 1.98937 0.73865
H  -7.18175 0.38316 -0.07909
H  1.25976 0.38133 2.05891
H  3.56019 1.07690 2.03528
H  5.73161 1.09263 0.91841
H  7.33061 1.61147 -0.90174
H  7.80016 0.09423 -0.01072
H  8.31262 0.34067 -1.72216
H  4.14240 -1.28539 -2.29418
