42
MD-75
O  -3.72884 -2.45643 2.32463
C  -3.20144 -1.56082 1.60979
C  -1.90137 -1.14530 1.89022
C  -1.30554 -0.14814 1.11091
C  0.11222 0.27671 1.38847
C  1.09147 -0.54231 0.54182
C  2.53937 -0.11095 0.80180
C  3.52122 -0.93894 -0.04086
C  4.98467 -0.49308 0.16174
C  5.52433 0.38472 -0.97989
C  4.84051 1.74777 -1.06174
N  -1.98933 0.39713 0.06347
C  -3.26920 0.01696 -0.24574
C  -3.97122 0.59952 -1.33457
C  -3.34802 1.66059 -2.20406
C  -5.28221 0.17952 -1.61442
C  -5.89752 -0.80026 -0.83787
C  -5.21804 -1.38007 0.23077
C  -3.90514 -0.98236 0.53789
H  -1.35568 -1.59770 2.71031
H  0.34572 0.14461 2.46806
H  0.22606 1.35780 1.15437
H  0.97759 -1.62108 0.78923
H  0.85336 -0.39981 -0.53578
H  2.64679 0.96740 0.56177
H  2.77574 -0.25224 1.87954
H  3.42981 -2.00368 0.26845
H  3.24052 -0.88677 -1.11588
H  5.62097 -1.40413 0.20460
H  5.11748 0.02797 1.13564
H  5.41399 -0.14459 -1.95134
H  6.61069 0.54897 -0.81064
H  4.86361 2.25559 -0.07404
H  5.37359 2.38419 -1.79912
H  3.78998 1.63542 -1.40166
H  -1.50028 1.12266 -0.50597
H  -3.08149 2.54450 -1.58722
H  -4.04199 2.00005 -3.00235
H  -2.43688 1.25798 -2.69450
H  -5.83499 0.61167 -2.43957
H  -6.90835 -1.11278 -1.06678
H  -5.72217 -2.14029 0.81496
