45
MD-74
O  -2.90242 -3.01439 -0.87635
C  -2.42793 -1.84785 -0.89064
C  -1.19095 -1.65244 -1.50513
C  -0.62343 -0.37804 -1.55043
C  0.72955 -0.17751 -2.18538
C  1.87197 -0.58471 -1.24376
C  1.99515 0.35933 -0.03516
C  3.11138 -0.06296 0.93323
C  4.51601 0.20968 0.37449
C  5.59163 -0.09882 1.42258
C  6.99049 0.16015 0.87051
N  -1.27731 0.67212 -0.98227
C  -2.48966 0.52519 -0.37176
C  -3.11347 1.64644 0.19227
C  -4.35826 1.53467 0.81356
C  -4.99604 2.73724 1.44611
C  -4.97412 0.28366 0.90403
C  -4.37887 -0.86420 0.35136
C  -5.12135 -2.17152 0.48881
C  -3.11383 -0.75190 -0.30328
H  -0.66879 -2.49449 -1.94537
H  0.85848 0.88163 -2.49788
H  0.79140 -0.79176 -3.11022
H  2.81454 -0.56025 -1.82953
H  1.71498 -1.62922 -0.89539
H  1.03904 0.34914 0.53093
H  2.16964 1.40131 -0.38229
H  3.00528 -1.14138 1.18383
H  2.98324 0.51490 1.87495
H  4.59405 1.27755 0.07316
H  4.69453 -0.42558 -0.51890
H  5.51861 -1.16438 1.73190
H  5.43628 0.53967 2.31954
H  7.18294 -0.48631 -0.01218
H  7.09772 1.22577 0.57550
H  7.74644 -0.07009 1.65058
H  -0.83017 1.61746 -1.01436
H  -2.62639 2.61366 0.14513
H  -6.10350 2.65409 1.41890
H  -4.66480 2.81780 2.50245
H  -4.71008 3.66447 0.90514
H  -5.92891 0.20704 1.41147
H  -4.50980 -2.89634 1.06588
H  -6.08368 -2.04884 1.03014
H  -5.35958 -2.57995 -0.51556
