39
MD-71
O  -3.02078 -2.80401 -1.06563
C  -2.81197 -1.65133 -0.59807
C  -1.59042 -1.37484 0.01685
C  -1.34800 -0.10085 0.54674
C  -0.01666 0.21064 1.17654
C  0.96732 0.72420 0.11742
C  2.30319 1.19423 0.71975
C  3.11153 0.09956 1.44503
C  3.43252 -1.14828 0.59824
C  4.20029 -0.86440 -0.70466
C  5.57989 -0.25412 -0.46118
N  -2.29783 0.87287 0.43762
C  -3.50490 0.63647 -0.15716
C  -4.47091 1.65617 -0.24834
F  -4.22335 2.89280 0.25329
C  -5.70253 1.40455 -0.85887
C  -5.98377 0.14193 -1.38317
C  -5.03564 -0.88030 -1.30232
C  -3.78995 -0.64516 -0.69086
H  -0.83163 -2.14639 0.08060
H  0.38415 -0.70515 1.66105
H  -0.15084 0.97766 1.96999
H  0.50869 1.59247 -0.40530
H  1.14414 -0.05891 -0.65000
H  2.92453 1.63625 -0.08769
H  2.10027 2.01524 1.44152
H  4.05987 0.54617 1.81207
H  2.55938 -0.22212 2.35330
H  4.03158 -1.84837 1.22050
H  2.48980 -1.68117 0.35190
H  4.33694 -1.82791 -1.24172
H  3.60987 -0.20244 -1.37201
H  5.48709 0.77690 -0.06128
H  6.13521 -0.20265 -1.42132
H  6.16097 -0.87796 0.25079
H  -2.08683 1.82258 0.82097
H  -6.44289 2.19136 -0.92635
H  -6.93996 -0.04512 -1.85470
H  -5.27837 -1.85053 -1.71819
