39
MD-83
O  4.12986 1.15372 -2.46230
C  3.48587 0.58523 -1.53807
C  2.08678 0.58275 -1.56951
O  1.43408 1.22420 -2.62650
C  1.38560 -0.06563 -0.52637
C  -0.11684 -0.11453 -0.47374
C  -0.68337 1.19066 0.10494
C  -2.21678 1.25196 0.02871
C  -2.89807 0.33202 1.05709
C  -4.43731 0.41670 0.98355
C  -5.08312 -0.75836 0.22999
C  -4.73627 -0.77962 -1.25710
O  2.05951 -0.64321 0.46588
C  3.38609 -0.65832 0.53147
C  4.01898 -1.29025 1.60776
C  5.41418 -1.31349 1.68640
C  6.18354 -0.70549 0.69052
C  5.56219 -0.07045 -0.38931
C  4.15788 -0.04164 -0.47732
H  0.42793 1.28712 -2.70466
H  -0.41505 -0.96630 0.17301
H  -0.53418 -0.31942 -1.48215
H  -0.35041 1.31168 1.15936
H  -0.27879 2.05106 -0.47127
H  -2.52792 2.29981 0.23384
H  -2.54804 1.00690 -1.00172
H  -2.56625 -0.71905 0.92484
H  -2.57522 0.65008 2.07291
H  -4.76900 1.38032 0.53767
H  -4.83468 0.39898 2.02207
H  -6.18697 -0.67325 0.33003
H  -4.77902 -1.72127 0.69508
H  -4.94973 0.20660 -1.72138
H  -3.66719 -1.03990 -1.40283
H  -5.34993 -1.55115 -1.76802
H  3.42970 -1.76371 2.38300
H  5.89994 -1.80349 2.52031
H  7.26376 -0.72605 0.75577
H  6.17825 0.39480 -1.14898
