39
ME-17
O  -3.52898 0.35657 -3.40367
C  -3.19213 0.05669 -2.22528
N  -2.03190 -0.62658 -2.01510
C  -1.62043 -0.98476 -0.76428
C  -0.31273 -1.70693 -0.57910
C  0.83817 -0.70482 -0.44328
C  2.17802 -1.42971 -0.24674
C  3.37769 -0.46847 -0.23889
C  3.46357 0.35861 1.05554
C  4.66935 1.31139 1.06568
C  5.99987 0.58258 1.25355
C  -2.38816 -0.62629 0.35152
C  -3.58500 0.07552 0.17231
C  -4.37236 0.43706 1.27691
C  -5.56628 1.13786 1.08862
C  -5.98243 1.48310 -0.19910
C  -5.20729 1.13064 -1.30748
C  -4.00186 0.42432 -1.13340
H  -1.44139 -0.88086 -2.83998
H  -0.13160 -2.37222 -1.45137
H  -0.35991 -2.35141 0.32643
H  0.63598 -0.04526 0.42734
H  0.88682 -0.07734 -1.36063
H  2.32098 -2.14788 -1.08400
H  2.15753 -2.01553 0.69849
H  3.32502 0.20745 -1.12040
H  4.29717 -1.08247 -0.34012
H  2.54860 0.97928 1.15439
H  3.51030 -0.31700 1.93764
H  4.69776 1.90419 0.12559
H  4.54457 2.02562 1.90841
H  6.23680 -0.04200 0.36792
H  5.96874 -0.05708 2.16106
H  6.81369 1.32802 1.37603
H  -2.05254 -0.89143 1.34789
H  -4.06536 0.17761 2.28319
H  -6.17058 1.41408 1.94306
H  -6.90824 2.02617 -0.33886
H  -5.55144 1.41129 -2.29535
