39
ME-10
O  -4.11634 -1.76279 -2.55515
C  -3.63882 -0.90477 -1.76259
C  -2.31454 -0.47396 -1.92363
Br -1.25666 -1.22885 -3.34574
C  -1.78829 0.49221 -1.03895
C  -0.35907 0.96682 -1.15069
C  0.57948 0.03951 -0.37122
C  2.03480 0.50798 -0.48295
C  2.97310 -0.41995 0.29761
C  4.42887 0.04779 0.18542
C  5.36642 -0.88050 0.96590
C  6.81650 -0.41826 0.85660
N  -2.56485 0.97259 -0.02379
C  -3.85521 0.56966 0.15346
C  -4.62367 1.09611 1.20492
C  -5.94577 0.68381 1.38663
C  -6.51218 -0.25605 0.52364
C  -5.75982 -0.79000 -0.52581
C  -4.42554 -0.38347 -0.72114
H  -0.04817 1.02620 -2.21506
H  -0.27867 1.99820 -0.74293
H  0.27658 0.02822 0.69935
H  0.49509 -0.99487 -0.77095
H  2.12053 1.54148 -0.08035
H  2.33591 0.51923 -1.55386
H  2.67190 -0.43138 1.36848
H  2.88687 -1.45345 -0.10500
H  4.73027 0.05914 -0.88541
H  4.51545 1.08120 0.58821
H  5.07341 -0.89405 2.03844
H  5.28794 -1.91514 0.56626
H  7.14310 -0.41997 -0.20520
H  6.92765 0.60552 1.27326
H  7.47074 -1.10800 1.43036
H  -2.15523 1.67101 0.63878
H  -4.19954 1.82612 1.88326
H  -6.53264 1.09385 2.19841
H  -7.53708 -0.57250 0.66868
H  -6.22253 -1.51869 -1.18007
