40
ME-22
O  4.37335 -2.88639 -0.15725
C  3.69854 -1.82079 -0.19657
C  2.30710 -1.88406 -0.36819
O  1.65670 -3.11551 -0.48342
C  1.56251 -0.69184 -0.42079
C  0.06167 -0.72902 -0.57211
C  -0.61245 -0.82005 0.80368
C  -2.13736 -0.98322 0.70698
C  -2.84086 0.29850 0.23610
C  -4.36497 0.13667 0.28272
C  -5.06872 1.41113 -0.19757
C  -6.58580 1.25399 -0.15141
N  2.19207 0.51039 -0.27568
C  3.54346 0.60331 -0.10723
C  4.16318 1.86014 0.02916
F  3.43050 3.00220 -0.00479
C  5.54719 1.94636 0.20079
C  6.32486 0.78835 0.23910
C  5.72501 -0.46577 0.10696
C  4.33168 -0.57191 -0.06677
H  2.15469 -3.99688 -0.44807
H  -0.24032 -1.59254 -1.20364
H  -0.27114 0.19001 -1.09861
H  -0.36657 0.08226 1.40596
H  -0.20720 -1.70423 1.34346
H  -2.38374 -1.82454 0.02252
H  -2.51711 -1.24987 1.71777
H  -2.53716 0.53058 -0.80687
H  -2.54224 1.14673 0.89074
H  -4.66414 -0.71587 -0.36644
H  -4.68028 -0.08569 1.32616
H  -4.77620 2.26733 0.44872
H  -4.76266 1.63777 -1.24224
H  -6.92140 1.05186 0.88811
H  -7.06736 2.19027 -0.50418
H  -6.90751 0.41918 -0.80996
H  1.61465 1.38207 -0.29422
H  6.01970 2.91472 0.30459
H  7.39645 0.86273 0.37247
H  6.35190 -1.34837 0.14179
