42
ME-27
O  -4.36495 -2.10495 -0.75773
C  -3.47082 -1.27862 -0.42276
C  -2.17556 -1.73253 -0.09681
C  -1.85383 -3.21007 -0.14246
C  -1.20459 -0.78522 0.31704
C  0.20520 -1.19075 0.68778
C  1.13219 -1.08300 -0.53090
C  2.54548 -1.62640 -0.25731
C  3.31790 -0.90205 0.86411
C  3.46463 0.61881 0.67827
C  4.23550 0.99173 -0.59598
C  4.48948 2.49483 -0.66419
N  -1.51970 0.54294 0.33881
C  -2.75894 1.00186 0.00957
C  -3.03867 2.37795 0.05483
C  -4.31047 2.85010 -0.27662
C  -5.31294 1.95589 -0.65534
C  -5.04884 0.58479 -0.70614
C  -3.76976 0.09421 -0.37589
H  -0.89294 -3.38275 -0.66922
H  -1.78392 -3.60655 0.89201
H  -2.62427 -3.79375 -0.68734
H  0.23487 -2.21754 1.10805
H  0.56736 -0.51539 1.49163
H  0.70039 -1.67256 -1.36855
H  1.18527 -0.02908 -0.87717
H  2.46754 -2.70259 0.01101
H  3.13426 -1.58123 -1.19803
H  4.33205 -1.35207 0.93607
H  2.82067 -1.09685 1.83805
H  4.01644 1.01357 1.55948
H  2.46639 1.10562 0.67760
H  5.21187 0.46046 -0.61501
H  3.65256 0.69547 -1.49363
H  3.52646 3.04874 -0.66268
H  5.10324 2.82290 0.20165
H  5.03737 2.73731 -1.59909
H  -0.78300 1.23094 0.61986
H  -2.27245 3.08498 0.34815
H  -4.51954 3.91144 -0.23910
H  -6.29742 2.32605 -0.91104
H  -5.84448 -0.08665 -1.00489
