39
ME-2
O  -3.01974 -1.03755 2.77171
C  -2.84621 -0.72122 1.56268
C  -1.55733 -0.76802 1.01210
I  0.06355 -1.35794 2.26806
C  -1.37268 -0.42036 -0.34472
C  -0.00396 -0.42258 -0.98265
C  0.69271 0.92858 -0.76780
C  2.01439 1.05533 -1.54728
C  3.11307 0.05748 -1.13651
C  3.59988 0.26401 0.30793
C  4.73775 -0.69623 0.68827
C  6.06934 -0.32682 0.03471
N  -2.44352 -0.01894 -1.09092
C  -3.70520 0.03426 -0.57769
C  -4.78092 0.44382 -1.38296
C  -6.07391 0.49815 -0.85749
C  -6.30525 0.14605 0.47342
C  -5.24499 -0.26170 1.28709
C  -3.93596 -0.32130 0.77054
H  -0.10572 -0.61556 -2.07282
H  0.60622 -1.25187 -0.57354
H  0.86096 1.10767 0.31420
H  0.01596 1.73651 -1.12392
H  2.40289 2.08929 -1.41955
H  1.80383 0.92278 -2.63103
H  3.96509 0.20759 -1.83199
H  2.76180 -0.98601 -1.27660
H  3.92801 1.31636 0.45451
H  2.75979 0.07078 1.00615
H  4.46549 -1.73983 0.41840
H  4.87275 -0.66012 1.79119
H  6.87187 -0.97747 0.44160
H  6.02717 -0.47969 -1.06315
H  6.32957 0.73087 0.25216
H  -2.28928 0.25769 -2.08808
H  -4.61864 0.72019 -2.41749
H  -6.89849 0.81396 -1.48348
H  -7.30898 0.18989 0.87617
H  -5.45133 -0.52807 2.31647
