44
ME-5
O  -2.02706 -2.11560 2.23258
C  -1.90135 -1.58328 1.09540
C  -0.82631 -1.94970 0.27008
O  0.11218 -2.89218 0.69854
C  -0.69522 -1.35446 -0.99888
C  0.46442 -1.70043 -1.90388
C  1.56513 -0.63139 -1.85615
C  2.28106 -0.59029 -0.49826
C  3.42815 0.42690 -0.51129
C  4.14222 0.46682 0.84797
C  5.21982 1.55975 0.91681
C  6.44180 1.24047 0.05602
N  -1.60257 -0.42065 -1.40729
C  -2.65524 -0.04627 -0.62547
C  -3.56889 0.91493 -1.08268
C  -4.64785 1.30137 -0.28493
C  -4.83123 0.73124 0.98787
O  -5.89986 1.08826 1.82392
C  -6.89852 2.04619 1.48841
C  -3.92107 -0.22751 1.44758
C  -2.82963 -0.62453 0.65169
H  0.05665 -3.33912 1.60580
H  0.89154 -2.69632 -1.65752
H  0.08882 -1.77368 -2.94742
H  2.30781 -0.86415 -2.65044
H  1.12854 0.36630 -2.08282
H  1.55542 -0.30689 0.29474
H  2.68704 -1.59910 -0.26426
H  3.02094 1.43522 -0.74524
H  4.15166 0.14268 -1.30498
H  4.59681 -0.52447 1.06657
H  3.39200 0.67566 1.64202
H  4.79261 2.53892 0.60923
H  5.55413 1.65641 1.97256
H  7.22992 2.00108 0.23853
H  6.84984 0.24043 0.31520
H  6.18129 1.26634 -1.02220
H  -1.48281 0.01990 -2.34867
H  -3.44613 1.36652 -2.05949
H  -5.33386 2.04463 -0.66753
H  -6.43265 3.03974 1.31792
H  -7.61705 2.13043 2.32922
H  -7.44977 1.72121 0.58081
H  -4.07270 -0.65864 2.42993
