40
PQS
O  -3.22654 3.12284 0.33001
C  -3.02651 1.87688 0.34576
C  -1.72131 1.39298 0.49730
O  -0.67807 2.31826 0.60847
C  -1.49973 -0.00436 0.52726
C  -0.11356 -0.58496 0.68017
C  0.61291 -0.61270 -0.67243
C  2.00542 -1.25626 -0.58309
C  3.02664 -0.35640 0.12944
C  4.43288 -0.97158 0.07153
C  5.46117 -0.17333 0.88777
C  5.79576 1.17840 0.25769
N  -2.55586 -0.85687 0.37316
C  -3.83412 -0.40761 0.22086
C  -4.89308 -1.31928 0.07597
C  -6.20296 -0.85937 -0.07804
C  -6.46819 0.51120 -0.08957
C  -5.42514 1.43017 0.05190
C  -4.09959 0.98057 0.20793
H  0.29668 2.06067 0.68249
H  0.45747 -0.01064 1.43673
H  -0.18560 -1.62186 1.07477
H  0.70027 0.41507 -1.08684
H  0.00338 -1.20775 -1.38789
H  1.93529 -2.23731 -0.06384
H  2.36052 -1.44880 -1.61939
H  2.73337 -0.22660 1.19258
H  3.03608 0.63967 -0.36226
H  4.39118 -2.00228 0.48732
H  4.77023 -1.04806 -0.98556
H  6.39756 -0.76908 0.95052
H  5.09121 -0.01975 1.92480
H  4.92001 1.85859 0.29767
H  6.11582 1.04723 -0.79782
H  6.62636 1.65243 0.82190
H  -2.37851 -1.88791 0.37304
H  -4.70470 -2.38578 0.08322
H  -7.01439 -1.56713 -0.18858
H  -7.48490 0.86272 -0.20928
H  -5.65746 2.48800 0.03798
