29

C   -0.628736   -0.932881    0.508081 
N    -1.07784   -0.640072   -0.749296 
O    -1.38562   -0.995204     1.45264 
C    0.857164    -1.20762    0.614925 
H     1.04672    -1.53462     1.63783 
H     1.10232    -2.04498   -0.041639 
C     1.72542   -0.019112    0.274817 
C      3.0641   -0.182472    -0.07977 
C     1.23331     1.28402    0.344759 
C     3.88356    0.897552   -0.368364 
Cl     3.75718    -1.77587    -0.15237 
C     2.04198     2.37389    0.060068 
H    0.198326     1.45085    0.622232 
C     3.36749     2.18169   -0.299707 
H     4.91543    0.722401   -0.639617 
H     1.63065     3.37238    0.122541 
H     4.00453     3.02695   -0.524083 
H    -0.39356   -0.410228    -1.45111 
C    -2.43547   -0.207188   -0.945362 
C    -3.52759    -1.24281   -0.689769 
H    -2.51624    0.190029    -1.95976 
C    -4.69407   -0.364242   -0.236551 
H    -3.21231    -1.90394    0.113589 
H    -3.77232    -1.83129    -1.57096 
H     -5.3209   -0.046151    -1.07178 
H    -5.31886   -0.830913    0.520381 
C    -2.82642     0.94481   -0.009008 
O    -4.10899    0.808188    0.348729 
O    -2.13732      1.8565    0.327763 
