39

C    -2.53669     1.35587    -0.21436 
N     -2.3375    0.393806    0.733383 
O    -3.60125     1.48436   -0.780403 
C    -1.36247     2.28587   -0.481844 
H    -1.51753     2.66296    -1.49309 
H    -1.46284     3.13666    0.196035 
C   -0.002536     1.65611   -0.338529 
C    0.956942     2.18286     0.51822 
C    0.317046    0.511624    -1.07056 
C     2.20794     1.59365    0.635473 
H    0.723212      3.0638     1.10477 
C     1.56333   -0.077845   -0.951488 
H   -0.424411    0.075859     -1.7323 
C     2.53267    0.454862   -0.098098 
H     2.93273     2.00947     1.32428 
H     1.79849     -0.9515    -1.54638 
C     3.86673   -0.175819    0.026004 
H    -1.38737     0.21046     1.01259 
C    -3.30101   -0.663133    0.883615 
C    -4.67563   -0.283516     1.42615 
H    -2.84922    -1.44009     1.50486 
C     -5.5713    -1.33094    0.762481 
H    -4.93405    0.714454     1.08171 
H    -4.73203   -0.321958     2.51161 
H    -5.67533    -2.23067     1.37219 
H    -6.55954   -0.956572    0.508613 
C    -3.63127    -1.33312   -0.457844 
O     -4.9207    -1.69903   -0.462475 
O    -2.87544    -1.54564    -1.35275 
C     4.00383    -1.56415    0.015709 
C     5.01537    0.605334    0.155343 
C     5.25274    -2.15446    0.133409 
H     3.12053    -2.18582   -0.062803 
C      6.2648    0.015992    0.271891 
H     4.92923     1.68475    0.138199 
C     6.38818    -1.36652    0.262011 
H     5.33877    -3.23341    0.131021 
H      7.1457    0.638431    0.361979 
H     7.36318    -1.82705    0.352558 
