29                                     
                                       
C    0.32504     -1.121856   -0.576925 
N    0.500105    -0.485258   0.617607  
O    1.260416    -1.394239   -1.298911 
C    -1.102969   -1.513826   -0.927529 
H    -1.130758   -1.554014   -2.016785 
H    -1.254182   -2.533696   -0.566575 
C    -2.172048   -0.59954    -0.390058 
C    -3.193919   -1.079854   0.42158   
C    -2.14059    0.76137     -0.699722 
C    -4.174964   -0.224286   0.908422  
H    -3.225424   -2.134057   0.671173  
C    -3.116365   1.616421    -0.212454 
H    -1.334255   1.150401    -1.313011 
C    -4.138412   1.124823    0.591587  
H    -4.966295   -0.614352   1.535413  
H    -3.079279   2.669162    -0.460708 
H    -4.901075   1.792921    0.969832  
H    -0.320325   -0.113936   1.068388  
C    1.768496    0.122313    0.917469  
C    2.955549    -0.810293   1.138773  
H    1.629735    0.772206    1.784731  
C    4.12418     0.059092    0.671828  
H    2.849329    -1.6836     0.500558  
H    3.06453     -1.124872   2.17418   
H    4.548329    0.651299    1.48517   
H    4.918444    -0.505756   0.190854  
C    2.251131    1.033097    -0.220411 
O    3.58737     0.965515    -0.302594 
O    1.575928    1.731266    -0.908724 
