29                                     
                                       
C    0.67351     -1.085048   -0.686402 
N    0.828232    -0.598367   0.580323  
O    1.619593    -1.263037   -1.422679 
C    -0.748639   -1.434781   -1.09702  
H    -0.738481   -1.464549   -2.186706 
H    -0.95234    -2.449447   -0.747729 
C    -1.805187   -0.483361   -0.596284 
C    -2.944017   -0.959183   0.043358  
C    -1.649284   0.89162     -0.779959 
C    -3.902256   -0.058354   0.471219  
H    -3.101366   -2.017474   0.20835   
C    -2.624485   1.771663    -0.337413 
H    -0.751151   1.271092    -1.254785 
C    -3.769897   1.303059    0.294328  
F    -4.997151   -0.531666   1.084227  
H    -2.493386   2.83549     -0.484521 
H    -4.545875   1.967695    0.647881  
H    -0.00037    -0.277933   1.054797  
C    2.087336    -0.019306   0.966736  
C    3.281127    -0.961005   1.091319  
H    1.931749    0.521703    1.903111  
C    4.446199    -0.032009   0.745612  
H    3.191761    -1.753677   0.353156  
H    3.381267    -1.395065   2.083463  
H    4.855029    0.463353    1.628425  
H    5.251416    -0.528716   0.210802  
C    2.574214    1.023869    -0.049161 
O    3.910983    0.979117    -0.121278 
O    1.899017    1.791182    -0.660362 
