29                                     
                                       
C    -2.225382   -0.615904   1.155347  
N    -2.218432   -0.705785   -0.207126 
O    -3.257294   -0.612498   1.790803  
C    -0.861041   -0.565691   1.826787  
H    -1.038184   -0.144657   2.816546  
H    -0.52432    -1.595053   1.968354  
C    0.178028    0.230605    1.080097  
C    1.417965    -0.322552   0.779045  
C    -0.101232   1.537492    0.678883  
C    2.36518     0.429978    0.096732  
H    1.644274    -1.337371   1.080503  
C    0.85177     2.276921    -0.00165  
H    -1.076688   1.96513     0.884722  
C    2.095474    1.730015    -0.297073 
I    4.221711    -0.422948   -0.348665 
H    0.628391    3.28988     -0.310065 
H    2.837945    2.308252    -0.829138 
H    -1.352968   -0.5014     -0.679745 
C    -3.443174   -0.51074    -0.936021 
C    -4.52322    -1.577998   -0.788785 
H    -3.186036   -0.37422    -1.989102 
C    -5.797871   -0.758249   -0.995784 
H    -4.490038   -1.986084   0.218052  
H    -4.429591   -2.383742   -1.513211 
H    -6.096835   -0.718231   -2.045037 
H    -6.637197   -1.105099   -0.398866 
C    -4.165896   0.773822    -0.506131 
O    -5.489354   0.57821     -0.572114 
O    -3.658859   1.805929    -0.196506 
