29                                     
                                       
C    -0.78608    1.296777    -0.425656 
N    -0.908593   0.566362    0.72254   
O    -1.73026    1.495477    -1.159365 
C    0.592602    1.875855    -0.700914 
H    0.594606    2.131149    -1.760756 
H    0.674815    2.812053    -0.14377  
C    1.740986    0.960977    -0.358322 
C    2.819442    1.407953    0.397084  
C    1.738572    -0.360256   -0.810348 
C    3.886411    0.569018    0.692667  
H    2.832845    2.42926     0.75846   
C    2.792052    -1.212256   -0.522289 
H    0.892249    -0.73265    -1.378198 
C    3.851088    -0.727717   0.2237    
H    4.732667    0.904903    1.27593   
H    2.802606    -2.23806    -0.864175 
F    4.873848    -1.547491   0.505307  
H    -0.056979   0.265937    1.168479  
C    -2.091801   -0.223543   0.935702  
C    -3.399898   0.525094    1.172604  
H    -1.891232   -0.907869   1.763495  
C    -4.426065   -0.460151   0.61069   
H    -3.396428   1.445363    0.594261  
H    -3.578708   0.752277    2.221048  
H    -4.78501    -1.159219   1.368551  
H    -5.277892   0.023273    0.139729  
C    -2.415643   -1.10839    -0.276433 
O    -3.744595   -1.216402   -0.401576 
O    -1.632397   -1.657037   -0.986498 
