31   
   
O -1.8664212607874715 1.3626148465926606 -0.34082463155665454
C -2.1845504564692333 0.12982357691388155 0.036370313211510595
C -1.2704619829596229 -0.8555705381768807 0.18943801563878152
C 0.12335860070978635 -0.585682737109536 -0.03824841567520824
N 0.6072598247956217 0.535794530765606 -0.43309463808152293
C 2.063426148961871 0.42938143318791305 -0.37829177818284093
C 2.627543971367089 1.2852898149534002 0.7716085206228342
H 2.314881506665341 2.31630944487948 0.595696500073592
H 3.7184923275981703 1.2583700256233328 0.7163949074542771
C 2.175855146912699 0.8288867102200402 2.1331546520641305
H 2.4968477609642896 0.7867005509363504 -1.313259580176419
C 2.286488829526749 -1.0833589387725922 -0.20380988540022704
H 2.559914967994501 -1.5731029024331027 -1.1393447626938027
H 3.0080809017367747 -1.335623172385312 0.5710542166947329
O 1.0025357997705233 -1.5798330713593114 0.20225850244728003
H -1.566232424203492 -1.8438866876146502 0.5000598842940761
C -3.6443294364320247 -0.052822488506432744 0.27310186059434793
H -4.192329029433054 0.17909232113892032 -0.6412798300916948
H -3.8700907717294233 -1.0690889445693421 0.5851393553078363
H -3.977787372882403 0.64765825200908 1.0401900084666071
H -0.8808343983471453 1.3949935610354045 -0.48983735282591007
C 0.8981653404518753 1.1326309553991496 2.602981970351047
C 0.4679015428540965 0.6684934026470831 3.8370392697205133
C 1.309750454106424 -0.10294889349572797 4.627122053199041
C 2.587200644742581 -0.4017210889865379 4.177298990863139
C 3.0133151604797344 0.06275577349868831 2.940551121118067
H 4.017449719220459 -0.16520733128229276 2.5997981154450653
H 3.254843596438172 -0.9938273667934815 4.789944394595022
H 0.9736051523984728 -0.4635642721036326 5.590536736020591
H -0.5278771897140071 0.913035684847235 4.184007218681799
H 0.2365536460726624 1.7338143279534117 1.9911807556571322
