30   
   
O -1.8899064719775487 1.3674674710210868 -0.29952606649540997
C -2.1785110520477065 0.11832824265324637 0.042353509519484696
C -1.239474832597003 -0.8439641669394433 0.19117688051015114
C 0.14879373944504878 -0.5371201735756188 -0.028649480515688604
N 0.6162268806661659 0.6109442323430644 -0.35284048636369264
C 2.0613624578437473 0.468328627198772 -0.5432880533734763
C 2.8444992941853897 1.560253494942174 0.1686080041871468
H 2.53712250224307 2.529494612372157 -0.23609681647147254
C 4.364570956368465 1.4253909387346575 0.05618826943761053
H 2.5524543402159687 1.551515241529829 1.2235414295303295
H 2.265508611534302 0.5173979546874654 -1.617171518805904
C 2.3383261852350192 -0.945430497518623 0.00040522252097365414
H 2.955448175340699 -1.5634693090831822 -0.6484218077312137
H 2.7790803334635092 -0.9138873622556304 1.0007323719306853
O 1.0397599106347157 -1.546749353556866 0.10480983234040239
H -1.513123445187843 -1.847203093980782 0.47320657605488053
C -3.6366783969073726 -0.11190308017211532 0.2457780344421139
H -4.173731411875804 0.1321982022215566 -0.6719305857969483
H -3.839386111415325 -1.143133383849579 0.5227521641225751
H -4.004251800279855 0.5551666704142494 1.0268503963022784
H -0.9032783590676173 1.4380991459953887 -0.415056210038611
C 4.839571758125498 1.4508940407221995 -1.3947827744237715
H 4.4968195427717 2.3628557055252655 -1.8910507645296055
H 4.470566565395623 0.5987572494224059 -1.9670906850345546
H 5.929368729982328 1.4332673663198636 -1.4439930047138152
C 5.042912212526866 2.533513305309216 0.8559362894218059
H 4.72409629807164 2.522507913584898 1.899369048847669
H 6.128735957174593 2.430753798474125 0.8304188012381829
H 4.788894022441366 3.5110938454066263 0.4381393510025049
H 4.659571136949663 0.46482036657096926 0.4950617039106775
