31                                     
                                       
C    -0.744644   -0.359254   1.265474  
N    -1.116224   -1.136745   0.216998  
O    -1.483905   0.458589    1.773283  
C    0.694921    -0.539244   1.729401  
H    0.741861    -0.15212    2.745087  
H    0.978618    -1.587239   1.728709  
C    1.584299    0.304405    0.845165  
C    2.466341    -0.1688     -0.122431 
C    1.530046    1.688634    1.007539  
C    3.283698    0.665307    -0.872181 
N    2.583893    -1.605052   -0.420127 
C    2.308308    2.541625    0.246194  
H    0.839944    2.087238    1.74094   
C    3.194933    2.031615    -0.694146 
H    3.962502    0.228133    -1.590106 
H    2.223941    3.610759    0.387958  
H    3.809123    2.693804    -1.288441 
H    -0.390945   -1.673158   -0.236069 
C    -2.319369   -0.827496   -0.506578 
C    -3.645023   -1.038932   0.218956  
H    -2.301677   -1.395273   -1.43972  
C    -4.532939   0.010731    -0.449748 
H    -3.515115   -0.813619   1.274654  
H    -4.038934   -2.046346   0.106299  
H    -5.037919   -0.380628   -1.335234 
H    -5.27193    0.443477    0.219515  
C    -2.381036   0.653523    -0.908317 
O    -3.656814   1.067235    -0.868189 
O    -1.469037   1.341497    -1.241661 
O    3.669862    -2.027542   -0.726813 
O    1.576101    -2.289169   -0.367578 
