33                                     
                                       
C    -0.000253   1.283699    0.458542  
C    0.137613    2.544795    -0.403959 
C    1.17372     0.346464    0.240369  
C    2.208715    0.254649    1.165533  
C    3.30297     -0.569851   0.952245  
C    3.375522    -1.323964   -0.210225 
C    2.351159    -1.248571   -1.147403 
C    1.263713    -0.421431   -0.916496 
H    0.460879    -0.383263   -1.644582 
H    2.402782    -1.843207   -2.053027 
O    4.465818    -2.122954   -0.379898 
H    4.395393    -2.591653   -1.21678  
H    4.105104    -0.641722   1.674467  
H    2.160761    0.844187    2.074382  
C    -1.320787   0.555931    0.268644  
C    -2.209906   0.832259    -0.76485  
C    -3.394745   0.123238    -0.912098 
C    -3.712183   -0.883343   -0.014304 
C    -2.83829    -1.176527   1.027726  
C    -1.659803   -0.463118   1.156697  
H    -0.977491   -0.707714   1.96347   
H    -3.081811   -1.963074   1.733703  
O    -4.885815   -1.550894   -0.195425 
H    -4.985669   -2.219625   0.488518  
H    -4.08295    0.342195    -1.717536 
H    -1.98889    1.615922    -1.477495 
H    0.040407    1.606303    1.504908  
C    1.386682    3.351101    -0.074598 
H    0.158093    2.257369    -1.459333 
H    -0.750314   3.166136    -0.260701 
H    1.428732    4.264236    -0.668408 
H    1.398474    3.636521    0.979765  
H    2.291713    2.776189    -0.273717 
