39   
   
O 1.73356660335753 -2.935393926807587 -0.8929835467125372
C 1.3637698942354062 -1.7911649433454955 -0.5125037098909846
C 0.0020759676153869196 -1.4849484159484931 -0.4902124031757021
H -0.7227202936858871 -2.2267282167724503 -0.8054895575863336
C -0.42258688370373015 -0.21956416758133385 -0.0628329605327542
C -1.887694518436842 0.12639291055561236 -0.07258636166737976
C -2.284808838956722 0.730303941531939 -1.4263023045457757
C -4.7571326542859795 0.07544737508105374 -1.4438554590183832
H -4.6921014453665695 -0.47478479170769095 -0.4812928341999026
H -3.921667198447574 1.899049321801549 -0.5838660612826069
H -2.101253528219049 0.8524361389914737 0.7417774791207992
N 0.49853710688543734 0.7169603439558614 0.30689978369083365
C 1.8369759603931524 0.44942975145001646 0.29735408861793705
C 2.759360064954952 1.431976592988117 0.6921964854489137
C 4.12900226491951 1.1571606945147555 0.6818055171338746
C 4.590517632544379 -0.09724654764901715 0.27754236910630664
C 3.685762578502776 -1.085364705616878 -0.11981375225131925
C 2.3027131510502485 -0.8231217105424437 -0.11446827213932896
C -6.187141708162469 0.6086482834391677 -1.6177020884287596
H -2.1273573009752496 -0.0169301819887259 -2.2351358945589332
H -4.517631285170929 -0.6241702233154415 -2.272789823793989
H -6.383233475115586 1.372424322541823 -0.8333584113165748
C -3.7392135534863957 1.2259852800718547 -1.4502873410714103
H -2.484584747908436 -0.7879734065143258 0.13093310489369536
H 0.16613085214971132 1.663489562207384 0.6034512352278799
H 2.418194757466074 2.409979090838834 1.00852576715356
H 4.834661979158741 1.9186743314962418 0.9878984907399917
H 5.652887993657625 -0.3044072062680919 0.2713749264738639
H 4.069067976739793 -2.049673019160501 -0.4302308289610495
C -7.249365219269533 -0.4931154842496858 -1.4813321974724203
C -7.244539440575431 -1.4681896587585717 -2.6583355658048182
H -1.6230708973947525 1.5991127289860807 -1.638370995162261
H -3.881162441400016 1.8245558488832831 -2.376915591705315
H -6.288404094254222 1.1075771091831283 -2.6065964792030005
H -8.249970036138517 -0.011294387310388756 -1.4330583163067379
H -7.100752869665203 -1.0533034608844647 -0.5326543006713446
H -8.104872310488318 -2.1638196131179064 -2.5640579457379036
H -7.33851694900943 -0.9188752131118382 -3.6191483814002177
H -6.313187261685296 -2.0712477400783174 -2.6657335879421544
