45   
   
O 1.7338256043785631 -2.8876111013942496 -1.0705669053083608
C 1.3597853589088305 -1.7596540830058465 -0.6455666319704677
C -0.009807876214840515 -1.4812011268761518 -0.552457834716334
O -0.9107254481713831 -2.4862148518227327 -0.9205182232518665
C -0.42786843605365693 -0.20978328780996788 -0.08619393389242166
C -1.8874620254784595 0.17351335707021712 0.035992304013548096
H -2.537800381031316 -0.3746151821017439 -0.6733491372134665
H -1.988756608730181 1.2412825718252851 -0.25676533213827896
H -4.9589768201677025 -1.016561511308755 2.7639192724380837
H -3.4038960227907658 0.5118888282706797 1.5195073595776243
C -2.4042973195603694 0.030071022054160193 1.4750781865849836
N 0.5113348185849027 0.7075720778463785 0.29169830839080896
C 1.8484067850451527 0.45427779479799163 0.21508647914020484
C 2.7783135571024036 1.430830271350688 0.6089812578830309
C 4.148606168989367 1.1724973896080202 0.5279642793011844
C 4.602942827778889 -0.05968741197800544 0.054475808247895816
C 3.6897508346532333 -1.041005352885818 -0.33997960829958135
C 2.3052519127410354 -0.7938923228474852 -0.2632672415701177
H -1.9133962739714527 -2.4133893562052475 -0.8275944110319898
H -3.280012114145766 -1.9555112211870256 1.2679209215191445
C -2.53709239070227 -1.4367009039996128 1.9123538596116476
H -5.971751310278433 1.773774649965587 2.845670582309651
H -3.8465104640808603 1.0636447303888266 3.753057910838833
H -1.7286115697797957 0.5744323547690213 2.1709766868624047
H 0.19210906586871299 1.6376026314201655 0.6495151737311915
H 2.4424962384830016 2.392090165182919 0.9780138063457965
H 4.859896070812698 1.9292906966681924 0.8326983426303198
H 5.665766234579912 -0.2553729394845554 -0.006529185648905895
H 4.068093435924389 -1.9889779888034749 -0.7024047811486888
C -2.9417318895193074 -1.5855103516214486 3.38900088869327
C -4.362566475495609 -1.0663641275681317 3.6978225018370603
C -4.339613059810411 0.3045253089869038 4.395169204023426
C -5.739714108946361 0.7990730873535649 4.800524087700698
C -6.5970314462352775 1.270956483488393 3.6138531826321945
C -7.333244180573371 0.16022973218685688 2.9972688984166753
C -7.938766410202003 -0.7509919779647075 2.4907826701991373
H -1.5597397470775856 -1.948055628246299 1.7829808280693844
H -2.9097789592508425 -2.6704697191988305 3.631339806024651
H -2.180626167602952 -1.0985375216378324 4.037780223925158
H -4.86711066805493 -1.7925144277126366 4.37258208602591
H -3.7324679468504196 0.21644879895582017 5.322875304622934
H -6.27145699435591 0.020482750315156763 5.391780184909633
H -5.597879507427182 1.6691252395895977 5.4784196693365015
H -7.34352518019025 2.0080428493637337 3.978796213948929
H -8.469346010973902 -1.5514362378545499 2.046308819726316
