43   
   
O 1.8628090841780829 -2.7965655909504465 -1.0522392854322258
C 1.4437121327261697 -1.6787662657331957 -0.6422975607595957
C 0.0664886689329241 -1.4536444118562277 -0.5632838164847439
O -0.7984753269509135 -2.488271648145415 -0.9350427001086109
C -0.40374891330696067 -0.20048553396959595 -0.11215887212552804
C -1.8830609983439768 0.09387590368605352 0.013295294743232792
H -2.4233617773150367 -0.2888753485069263 -0.8776101165030856
H -2.0596074363666297 1.1916319702121185 0.011012527401813993
C -2.4874461799653913 -0.5120072010487496 1.289369438526957
H -3.589973661314359 -0.40115724622544163 1.2207144067669162
C -1.9843348547630566 0.1923973110485117 2.5610641474450095
N 0.4917233231048879 0.7631835532519969 0.2563706399207453
C 1.845660863202782 0.5707106416418912 0.19541249108081016
C 2.755858669272628 1.5897109027599217 0.5865849334473764
C 4.137410375843095 1.3495815148966108 0.5054306195964136
C 4.621420894401755 0.1260815743872743 0.048065654499362655
C 3.737909846384246 -0.8799089240246716 -0.3349368540249107
C 2.348700915763628 -0.67153105966115 -0.2655046336426122
H -1.8061921750468979 -2.4215674328030605 -0.8928748803990739
H -2.255018470183499 -1.5974176930845114 1.3434549051906546
C -2.4949632480202193 -0.4675396512842367 3.854763248374833
H -6.656925492710513 0.3674326799484359 3.72075650246847
H -4.498143756697928 1.4691875624555617 3.1132105474739507
H -2.263703930359655 1.2668225503740358 2.538772426995656
H 0.1092855812862579 1.6717180287628648 0.599459972516294
C 2.2816658930426246 2.928517510715012 1.0903572393228262
H 4.847876043959465 2.1130016315172906 0.7979734350385748
H 5.6889930559172575 -0.043878750777720354 -0.008641423779510871
H 4.145089762944857 -1.8209151007097073 -0.6843158218954802
C -4.023399859701816 -0.44803031138080346 4.037789157818855
C -4.600944274217461 0.9732721201065969 4.101576392511884
C -6.081144023661804 0.9491569020215544 4.471928185543343
H -0.8745663690033543 0.146689462820677 2.5864823441748617
H -2.1492896757273243 -1.524062897922557 3.879165152626191
H -2.0245886950348324 0.04579676242100242 4.721721747247785
H -4.5172878158867045 -1.024064345230721 3.2270591268084656
H -4.252540817963037 -0.9714570166089777 4.99199592283423
H -4.050236108009428 1.5714223265042024 4.859789724799233
H -6.475367108305036 1.9869688215452888 4.495956149020023
H -6.221300960631765 0.49361764765765354 5.475355878729443
H 1.6800818090374072 3.434515552398996 0.3062224497722182
H 1.6660051121933075 2.7905095605874353 2.004098981625099
H 3.1306436845392303 3.596021638442399 1.350666419361575
