33   
   
O 1.8122418683381216 -2.8790531940043205 -0.921103603855442
C 1.4237694693653167 -1.7433807267525705 -0.533664308271426
C 0.0567003148083771 -1.4640461274478025 -0.49739504042358096
H -0.6574944106827973 -2.2228806686619476 -0.7957692618987348
C -0.388384309260552 -0.20513802984321433 -0.07223031069754038
C -1.8659758140360772 0.08593223241654209 -0.0021765831504886837
H -2.3653175247429865 -0.3539343230735648 -0.8929955294070031
H -2.047656022806499 1.1819594046883592 -0.04410499217087797
C -2.5072867904280063 -0.49968551509152237 1.2640087237705844
H -3.6073385581813553 -0.3840095241697921 1.1684588080876956
C -2.0278678554649194 0.2104608805775075 2.541699492468999
N 0.5167249320462721 0.7395837725639057 0.3164919216967851
C 1.859898914971675 0.4982737424448117 0.29363382124567505
C 2.765772591789437 1.4919980135401771 0.6985166569952947
C 4.140320238382745 1.2438003551491963 0.6754558132545606
C 4.623111115260271 0.00458379188105947 0.2497866287629686
C 3.7347854207690676 -0.9952837385705176 -0.15517915726763631
C 2.347051771262636 -0.7598132081939216 -0.13723460512146024
H -2.2838804017077456 -1.5873823763405108 1.3276683091295112
H -0.9244001080874447 0.10740697245599459 2.6217656970659746
C -2.643487488212296 -0.3893810736682629 3.8151305294720244
H -4.731071660575025 -0.5523212079134471 3.1916720311316924
H -4.281455994955591 1.0484114317691395 3.9149955424904843
H -2.261949599134616 1.2961456388904566 2.4843765969776865
H 0.16864725787785748 1.6699927330449076 0.6442638535368505
H 2.4079921722970834 2.458426215083893 1.0316213842041033
H 4.833231844958367 2.014134807355926 0.9884769967488202
H 5.689179609610451 -0.18206765297786398 0.23410895718795244
H 4.134324190233719 -1.9482031654531575 -0.4799743168133609
C -4.125345117696085 -0.04974796337055612 3.973502805865943
H -2.0986526654830313 0.019266806376403198 4.6937607981155365
H -2.5105912613926415 -1.4931204854095141 3.821891296157544
H -4.480326476933832 -0.40374758789074716 4.964286517396006
