46   
   
O 1.9564139013683133 -2.7380409886899963 -1.0409669539725706
C 1.5024935741740835 -1.6439208859288643 -0.6059414251885086
C 0.11520059257086514 -1.432331254452776 -0.5642661009994309
O -0.7711446989678528 -2.415606281032981 -1.0117053249962127
C -0.38365193503420203 -0.21344351514858087 -0.06868286966896671
C -1.867899953375904 0.0560319328729363 -0.04156227302485726
C -2.323714760626164 0.6720840082267222 -1.3715959435925242
H -4.357714351226326 -0.08518998945940506 -1.152020934844154
C -4.345428680065107 2.025075463828963 -0.580783358137442
H -4.08360337913213 1.8288732219933166 0.4799007875864497
H -2.0935018093818605 0.7474621128686136 0.7969289356099221
N 0.48189521387793055 0.760212264289534 0.3381181980248578
C 1.8335597291650505 0.5819373636170334 0.3082062789315473
C 2.692507396468471 1.6040593999927397 0.7445880748272886
C 4.0770065231406765 1.4217775940886181 0.7146495915618843
C 4.616607224163327 0.22109004919136185 0.24949774841336478
C 3.775305632218834 -0.8044967647759775 -0.1897841062175607
C 2.3773612798945294 -0.6350845078296852 -0.16559758929299662
H -0.4537916829676787 -3.304634118319551 -1.3790141737395523
H -2.018001690338115 -0.00384827874624509 -2.200581871689346
C -3.847614930532739 0.8570702741218603 -1.4497615695983508
H -6.374292384864458 1.2308097524441102 -0.4725837182758793
H -6.171763902978973 2.895741744419465 0.16646078582546905
H -2.4258117648659705 -0.885156397569973 0.1548762889683565
H 0.09430289083357331 1.6692669341492694 0.6815463490598103
H 2.290267927767014 2.5414431119094387 1.1085844416388824
H 4.733279021221993 2.213179250841429 1.0530602309499133
H 5.6902001747562005 0.08491157268569859 0.22832895123731764
H 4.219596939661147 -1.7254385612413317 -0.5471291818158771
C -5.8704658094639015 2.2059463859739497 -0.652524190844559
C -6.336796465671623 2.7982912250917975 -1.9913390498714998
C -7.842655225882578 3.100321955089629 -1.9611632361642226
C -8.379376416367377 3.566907391587661 -3.323149526672509
C -7.892499882205229 4.96494378218509 -3.7032455339490493
H -1.8153059456811032 1.6486346831954146 -1.5309589000923003
H -4.103832443054476 1.0576777215359043 -2.511081461298867
H -3.8394059613825835 2.967902598440382 -0.8834262635847147
H -6.1307682411047715 2.07841251827389 -2.811295170863355
H -5.773746368908845 3.735434720784011 -2.18812132147442
H -8.388873312271972 2.1740697347485027 -1.6769243990672413
H -8.059857863216289 3.870135766390332 -1.1882641830751617
H -9.489721548882551 3.586809224066909 -3.2742485536369217
H -8.091595091411211 2.843440677916871 -4.1166081443186116
H -8.405174414898289 5.293898192608622 -4.631653767804641
H -6.7997379162565235 4.962079585712019 -3.8956832211480066
H -8.125126156090218 5.691017946459937 -2.8954420167674466
