41   
   
O 1.7204118571368994 -2.9359790904629843 -1.0473792652427965
C 1.3510604543330498 -1.8097549588742805 -0.614347225811419
C -0.016707247080980005 -1.4973336394589853 -0.5628744704607722
O -0.9773913702944574 -2.424886079039491 -0.9745128536732766
C -0.4202479643556116 -0.23574913248772933 -0.0877715093338508
C -1.8837630298635564 0.11702823754225726 0.010901115167586194
H -2.437295149795177 -0.3517123181912857 -0.8301629692603575
C -4.883099718961413 -0.23990813495835625 0.4902694695857895
H -4.643800100261151 0.38901179070953057 -0.39503714853462724
C -3.910273371995651 0.09573414136634867 1.638233553515606
C -2.4586206824753947 -0.35991308945144734 1.3565719042683568
N 0.5152105541115687 0.6589787747076602 0.3445637199881954
C 1.8499112757487122 0.3819918547344047 0.3061536858171871
C 2.7835151243011658 1.3325309234319482 0.7507923070003371
C 4.150736456057004 1.0494693252966107 0.7113138147183325
C 4.598521532303432 -0.1820674816009094 0.2298024045236834
C 3.6820430628446585 -1.1387280592522828 -0.21449472137996786
C 2.300447241598762 -0.8675305676123283 -0.1807353486951074
H -0.7298659598353153 -3.3442758961152994 -1.320167665927271
H -2.0016346720257894 1.2142309384493848 -0.10053610839834162
H -4.7728303038848985 -1.305714620271025 0.19306337448654765
C -6.346922832951322 0.02457905242598669 0.8978892736414859
C -3.996796289251679 1.5936032090598695 2.0374219933988886
H -1.807650280604806 -0.0022184829719236136 2.185302028786528
H 0.19605545177782577 1.583114591907131 0.7169527523500586
H 2.4529377248675464 2.2927769696744758 1.1271118720767481
H 4.864950158533166 1.786650302861338 1.0548492982014892
H 5.659092853315678 -0.39651365625015006 0.20143332585258703
H 4.055676828023018 -2.0866794016675994 -0.5818506082684742
C -6.505786798811052 1.1848140864869954 1.902888785576077
C -5.381251987584097 2.217039970725563 1.7660817596356508
H -2.4281337876703786 -1.471799398115986 1.3770046169980525
H -4.247037208950661 -0.4931503430034328 2.5222994460190304
H -6.775441887107648 -0.8970012980929876 1.348825474408615
H -6.9360360510918815 0.24705837399975414 -0.018524715003466138
H -7.487420420273474 1.6813140847805446 1.7441266606561985
H -6.49873157417177 0.7816450610854351 2.9396641842821065
H -5.556299488934835 3.0545907368207965 2.47547438821601
H -5.403026138155696 2.639062163995563 0.7370192709332087
H -3.7667345822988456 1.6823870804586596 3.12200043255089
H -3.2376892540623237 2.1999102066953418 1.5018630955694467
