43   
   
O 1.8596856597202738 -2.7438411687879536 -1.079792640626808
C 1.4350168915502655 -1.6406217319660188 -0.6400315198359162
C 0.059038942888052996 -1.4173809771490913 -0.5696199044298038
H -0.6267705197602123 -2.191249553898834 -0.892435895144987
C -0.42661501267689583 -0.19593786436077978 -0.08307898501385275
C -1.9106388963697818 0.06581028035561337 -0.030345136618254432
C -2.3620808131626663 1.0437758441080085 -1.127543425569174
C -4.461017921493985 -0.6719665032568055 -2.711235584206338
H -3.429694350843103 1.3023472504863358 -0.9687555599591207
H -2.4887984208841645 -0.8804297745168258 -0.09327355443013816
H -2.1524804835999385 0.5115553339695211 0.9584837288406441
N 0.44954644734357185 0.7701153382654177 0.3185621525336713
C 1.8003828261025354 0.5828564642818828 0.26241486376752277
C 2.6737609624250185 1.5965487295273633 0.6825544558977481
C 4.056357166998643 1.407687616169719 0.6249176728514837
C 4.590124115035244 0.19781186098202277 0.1443376924187857
C 3.721859614299662 -0.8163484657789326 -0.2761611343173921
C 2.3271286912942055 -0.6368959157273343 -0.22253354633949993
H -2.547042443413596 -1.6062370943208926 -2.3165998126654044
C -2.938110744194965 -0.7580142586008142 -2.9153429241806528
H -4.6973968140460345 -0.4988716549626878 -1.6400822496879306
H -6.955485107940724 0.509570895610955 -2.4154120812230624
C -2.1563044865470786 0.5242395530838272 -2.5642257523949175
H -1.796081844100974 1.9942548810205847 -1.0167263961429887
H 0.071209722494606 1.6768762633208358 0.6776828081958044
H 2.2839001721110805 2.5356888563801374 1.0555665083983972
H 4.701842590308017 2.2093849479869667 0.9566166834804324
O 5.971422442394643 -0.03599397975100553 0.06852316760162981
H 4.144124305953614 -1.74365661435806 -0.6445437626552977
C -5.119277146939099 0.40912481890941194 -3.580271969033405
C -6.640118130086193 0.3528854185324679 -3.469069081366651
C 6.968800980817469 0.9018809528320568 0.459842163851317
H -2.4369128790860626 1.3293898889478013 -3.2758123986262935
H -1.0744017167952342 0.33299948621103476 -2.7307419468799528
H -2.735205392973701 -1.0088948345509867 -3.97933321438855
H -4.892363838219859 -1.6607925522981313 -2.9816185299725904
H -4.8308058858827145 0.26514370939632886 -4.6442158959618505
H -4.782837235722673 1.4160135787197452 -3.254162451526951
H -7.0886198372205875 1.1515795659170134 -4.09672460140229
H -7.017579900661675 -0.630067781318854 -3.823118151914887
H 6.8848348646690445 1.8256620239872023 -0.1507420731008012
H 6.862319594935173 1.1449144613371398 1.5381886179208313
H 7.970769898159997 0.4560819402925623 0.29351095602110516
