42   
   
O 1.7083055057318208 -2.845720302971887 -1.1729401970088869
C 1.3505455622334386 -1.724686544490594 -0.7184565417765559
C -0.008634505506233016 -1.4394787469643935 -0.6054701891075928
H -0.7417135504176453 -2.1815212024424264 -0.9003583922963667
C -0.4209170623540572 -0.19806336120298065 -0.10991346792033738
C -1.8887239049293179 0.09896952909325368 0.04786811741682766
H -2.475821178994379 -0.46519827269800457 -0.710102007527021
H -2.0676493032278778 1.1815393698025052 -0.13253749649373517
H -4.439933004147634 -0.5374353413233587 0.8854823548648778
H -4.02268175837943 1.11669342085618 1.460310190860377
C -2.362097731285514 -0.276533134877657 1.4555099451811364
N 0.5080530930868113 0.7203303117344868 0.2845307010169114
C 1.8538846807619103 0.47959343217151296 0.1897131797763502
C 2.809157959455531 1.4487573630327528 0.5970622205651209
C 4.178835194693769 1.1590347710889182 0.48106267924067325
C 4.60748618091784 -0.06578233550165997 -0.02656566355769295
C 3.679873829528037 -1.0244728172103654 -0.42695552597957226
C 2.3018258721935188 -0.7663122114127787 -0.3242945431263733
C -5.813858050261907 -0.0028984125922402347 3.2760498042338755
H -2.1883058738888947 -1.362520311055942 1.6238943829387518
C -4.328112258590695 -0.35099998084274225 3.046031233651366
H -6.366083552506346 0.06904381704869707 2.312990035130646
C -3.8522185293406217 0.034270524821097735 1.6372145194809287
H -1.7730110287906053 0.2961833849757903 2.205974485936148
H 0.15786100653307533 1.6255963662497916 0.6688280729275634
C 2.3950022019882833 2.7862459322284208 1.1537129017177228
H 4.923254253235181 1.8846308816748645 0.785270540715133
H 5.666665760740537 -0.2734232857018991 -0.10944920164914411
H 4.043696116880941 -1.967690386965556 -0.8159714906010941
C -6.025437396338348 1.2793766304822387 4.098296547445552
C -5.567112473470681 2.540624979746787 3.3693209758686993
H -4.199518971130674 -1.4495191962990084 3.1661105053579113
H -3.6874775307452796 0.13770999984506815 3.8127984079321586
H -6.280832162608104 -0.8377150364020739 3.8432738826272663
H -5.4935613672774934 1.199314342093985 5.071310942965214
H -7.110651563654786 1.378311944493446 4.318123045614433
H -6.021445635546306 2.5928020721198686 2.356984578582771
H -5.88377608661707 3.4353798029137987 3.945577802056852
H -4.460586597173676 2.5604156522417347 3.2857134154011085
H 1.7958713934086332 3.3389235838663662 0.3997789509032894
H 3.2732365985148824 3.413808091034046 1.416323751060972
H 1.7937835098886197 2.640329790871573 2.075692765522512
