39   
   
O 1.754178162107765 -2.9118599750720304 -0.8858902451977632
C 1.3534805961580545 -1.7727932014688648 -0.5197298445326269
C -0.01875622818621154 -1.5006814186192339 -0.48273352514868895
O -0.9161847919837253 -2.502099597561392 -0.8654695390858458
C -0.4455061910922908 -0.21918865640576082 -0.0633865972308334
C -1.8982495357507971 0.1650823920201276 0.002640793994968076
C -2.4179814803331188 0.5670007123518683 -1.3857712806292735
H -4.454536461841269 -0.04842660904462871 -0.9284406327681559
H -5.495056906486659 0.2370977578058688 1.1783505848919105
H -3.96137320230103 2.1533474849503405 0.33641085205220783
H -1.999926419023349 1.0239964522110048 0.6988127182452946
O 0.45507313847605424 0.7025765067018929 0.27070809329170503
C 1.764719633999881 0.48234138534434234 0.24487391664943378
C 2.646160670976175 1.504455426166123 0.6145089082142574
C 4.026026600176754 1.2835734855553684 0.5924052220182812
C 4.531744762953751 0.04089023038568999 0.20081455415405375
C 3.660635310458782 -0.9877370462988123 -0.17131270960733808
C 2.269576385894036 -0.7749917023801125 -0.15242251824543382
H -1.918739648031852 -2.3728995526207948 -0.8898999197965057
H -2.1984792969590807 -0.2493505075452513 -2.1078381596415396
H -4.265266850548903 0.8562286362625684 -2.459585791621297
C -6.525880674801128 0.5522783750698328 0.9138160977658236
H -6.103047736820297 2.620193222492601 1.408264808722754
H -2.500139881870148 -0.664197037821645 0.4305040365031702
H -1.8834591204539741 1.4758540779818103 -1.7401455812950484
H 2.2618944901576703 2.4697779542239755 0.9193109205159422
H 4.704498260570667 2.076579578498707 0.879260949339643
H 5.601161381803113 -0.12542729136472408 0.1852549337346319
H 4.074797874622613 -1.942266742744128 -0.4720259019505636
C -3.9347901308321283 0.8120355707683999 -1.398591847393778
C -4.327279944462439 2.1318025090803783 -0.7114397049718306
C -5.850765511501665 2.375783611882404 -0.747544553658264
C -6.559260356743865 2.041226387699993 0.5760096580431656
H -3.8235647647897624 2.9649139244008365 -1.2494740402424207
H -6.329999510315246 1.8209414249664428 -1.584130267676534
H -6.023397801997038 3.4558369139014298 -0.9486009208196132
H -7.6219143012248045 2.356852812377909 0.49304526493302936
H -6.894970607823913 -0.05031605159778246 0.05684261119207707
H -7.179531119475018 0.3580900277128875 1.7901199062868198
