39   
   
O 1.7865049751443651 -2.8827634966762945 -1.0678164738544815
C 1.3976132817815552 -1.758867971829523 -0.645919419512068
C 0.0248360719915523 -1.4875099721673892 -0.5616803288205172
Br -1.227416827905062 -2.8417817513105903 -1.117716731870561
C -0.40445869815280133 -0.23135423114262096 -0.08120037250889171
C -1.8704758169271436 0.12160903532235899 0.00016932754553635712
C -2.362392604316903 0.692753932375327 -1.334058838981648
H -4.436938631932142 0.13519974683731997 -1.0190872491598284
H -4.01375659268754 1.800224983481555 -0.46121338348893104
H -2.4719965309572527 -0.7669666003039168 0.2859567689492262
H -2.0255412165204394 0.8759418528661299 0.8023001175202437
N 0.5205702328778481 0.7103403146547441 0.267931497665958
C 1.8607131321043509 0.470477998658648 0.1952530550727582
C 2.779627640326484 1.4632880159127202 0.5736350074949663
C 4.152661591643608 1.2178089391418145 0.4996349027775315
C 4.620903984634449 -0.017261847229541178 0.04768572216288383
C 3.719117868181041 -1.0141257773715675 -0.33380815662637464
C 2.3318882128892424 -0.7806883488541523 -0.26435012148156994
C -4.343092261587484 1.6206535633471368 -2.6004256529145566
H -2.2007621557596693 -0.05611018433987823 -2.1402386341858834
C -3.8518319338654092 1.0487833250605403 -1.265374114782627
H -6.41832322430569 1.0626773150902962 -2.2861186132910607
H -5.9956021066034895 2.727847930410345 -1.7286028207584605
H -1.7756879846683278 1.6056538096414676 -1.579797526148496
H 0.18918948432006838 1.6452977835253888 0.6005264113196144
H 2.4330707418233364 2.4267622427168627 0.9265680648642612
H 4.855390930701534 1.986870670979621 0.7933209520714046
H 5.68586251955534 -0.20262044908620447 -0.008016357842172432
H 4.108488598580741 -1.9628796515900502 -0.6822365255394459
C -5.8329470776376695 1.9760942004905144 -2.5323949454422934
C -6.323456061861904 2.5476132603306754 -3.8675497146112936
C -7.8061136612321995 2.9026009572935028 -3.8038748213287716
H -3.757878253224953 2.534118714864347 -2.8468412027077856
H -4.1806995895714785 0.8691024876896057 -3.404448212146267
H -5.745089419138072 3.4634941711647773 -4.118616833035945
H -6.1673166649331135 1.799924479461666 -4.675592501404993
H -8.410244730473542 1.9978522968874246 -3.5790521428225386
H -7.9862200744357015 3.6685331367124006 -3.0196586885225236
H -8.13238736363332 3.3131321992369194 -4.7826400400149796
