39   
   
O 1.8439655930348235 -2.7694021460718474 -1.1645421875064015
C 1.4283260141361973 -1.6638543841550195 -0.7207643632816385
C 0.0492904227597356 -1.4397465783977217 -0.6000301099993905
I -1.288628290664166 -2.989843423533528 -1.1999187574750312
C -0.40783167196039916 -0.20229954898860494 -0.0943742483452129
C -1.8809088717071132 0.10632132091233043 0.028714231814261054
C -2.4202367593401797 0.691572134416448 -1.2842023199566512
C -4.915004972001331 0.11142384632948446 -0.8454947492158991
H -4.674438892875409 -0.38520034233873834 0.11751074293023095
H -3.914647389542166 1.9757862407973643 -0.3765799730460177
H -2.0366009014059676 0.8390257972081385 0.850280509849294
N 0.49538034101180006 0.7647172940851745 0.2428752836549497
C 1.8401042513497183 0.5697656046518506 0.13432511528754773
C 2.7355126829581695 1.5880021675426355 0.501490919110363
C 4.1134845841095915 1.3884761533663554 0.39069191548640547
C 4.60998316146343 0.17439937153917534 -0.08713730527533535
C 3.7315981914113023 -0.8471294200297708 -0.4577974884380424
C 2.339646565701367 -0.6598862946520491 -0.35127853668647735
H -4.095354029972703 -1.483714116323212 -2.070110091817726
H -2.3319701362351717 -0.05231416326811344 -2.1027055086876385
C -5.054424768584854 -0.9366863275412737 -1.9626664971352679
H -5.887969692321304 0.6278576354728779 -0.7083841466219694
C -3.8702773975944433 1.195910161979753 -1.1679355720674858
H -2.4394742231707136 -0.807006966490466 0.31375583610075725
H 0.1428172158722017 1.684872705999724 0.5945220678236186
H 2.3668248364632145 2.535711947975536 0.8741609341622003
H 4.798040833357033 2.176873735707647 0.6758999209397645
H 5.6786499783254865 0.024526539111394786 -0.17135600651201877
H 4.142677012260319 -1.7787969313943748 -0.8267991255849074
C -6.141497260549431 -1.979462032491184 -1.6587590499080915
C -7.556960206933451 -1.4220180895081664 -1.8086164743001387
H -1.786597815772436 1.5595802461748804 -1.571650591678565
H -4.1504411829156815 1.691175961998204 -2.123205442432169
H -5.2704463365728085 -0.43646732761459284 -2.9320534941990704
H -6.0065748773512935 -2.3866673188366403 -0.6330709443982103
H -6.025849799825716 -2.824263599755189 -2.372129525380996
H -8.291136299850264 -2.2476606833002744 -1.6978958014081986
H -7.769632098903605 -0.666259520921597 -1.0250070194223821
H -7.690856583308472 -0.9640553089570447 -2.811638978296696
