40   
   
O 1.7728823422830016 -2.889580508446927 -1.0013325100057404
C 1.3903937432101208 -1.7579666759489843 -0.594111451269107
C 0.02036031871777269 -1.4727109586873794 -0.54606758440416
O -0.8786846600583097 -2.456070425972272 -0.9721823918665202
C -0.40781854039370485 -0.20791389043345074 -0.07755332171169872
C -1.8714811304131551 0.15974603639217777 -0.0107469014803515
C -2.3752592364430716 0.6241403072429524 -1.3850105259665297
C -3.8445819144330824 1.0730027048597923 -1.3558793528022952
H -4.678488223489876 -0.5943424275219804 -0.22996845746551017
H -4.002066474772169 1.7959687653796312 -0.5255080078660497
H -2.0160364335020913 0.9805079915428904 0.7251295208393511
N 0.5212634134625221 0.7249289298986309 0.2865094236682473
C 1.8599680273104104 0.46982227737404103 0.24444972918441055
C 2.781616353562653 1.4542893646831176 0.6380491439726231
C 4.153048266400177 1.1925432563088143 0.5969956934267866
C 4.61703276704028 -0.05067331598490811 0.16332190330337984
C 3.7125364994003744 -1.0393359638103414 -0.23279120544244752
C 2.3270142999809114 -0.7891665876891392 -0.1965718519559208
H -1.8803937076906554 -2.3247326231487726 -1.0082170479769146
H -2.24394641185311 -0.18212540333479904 -2.1389144566133726
C -4.819199655974518 -0.10654409253048293 -1.2175792460090757
H -6.451435126775731 1.1738823830628347 -0.5888631822266865
C -6.274877507045237 0.3691561040840388 -1.335994848625617
H -2.461478829424196 -0.6976368368816889 0.37017183090009403
H 0.19524413149189446 1.6652225868726478 0.609086212879415
H 2.438424589992108 2.4238011698886446 0.977501806187046
H 4.857825814969854 1.9552268065640361 0.9022240723534624
H 5.680736191929394 -0.24872230059720427 0.13319480299144565
H 4.098394631531894 -1.994758455694338 -0.5666355128226226
C -7.287553555837123 -0.7550800976766626 -1.0687659073525497
C -7.316229652731308 -1.802172742985175 -2.181824729251795
H -1.7571083600510962 1.4887366785773488 -1.7134263351037082
H -4.059147007693518 1.603943408730513 -2.3093724788013263
H -4.604487476478932 -0.8485915416827912 -2.015876002662144
H -6.4516778888970805 0.8017339744623462 -2.3453072343794092
H -8.300168973056628 -0.3032922359088541 -0.9901554635893894
H -7.064362479335918 -1.2489922656540406 -0.09813469386613016
H -6.36626656084234 -2.374973378751419 -2.2076017483684276
H -7.484494025800636 -1.318113447245905 -3.167278447882958
H -8.144769025362667 -2.5171091645822643 -1.9938828603838283
