40

C     3.55771   -0.849462    0.171234 
C     2.75342     0.04937    -0.79533 
C     2.80324     1.56823   -0.482816 
O     1.42318     1.90664   -0.119828 
N     1.29912   -0.284613   -0.738163 
C    0.670961    0.750078   -0.348733 
C   -0.769861    0.898521    -0.09113 
N    -1.53237   -0.204876   -0.225342 
C    -2.85344   -0.113901    0.001588 
C    -3.44798     1.09877    0.374338 
C    -2.65771     2.22884    0.512789 
H    -3.09618     3.17361    0.800337 
C     3.05423   -0.682872     1.61029 
C    -1.28856     2.13524    0.277569 
H     3.12868    0.351334     1.95242 
H     2.32645     -2.5841   -0.248697 
H     2.01384    -0.99808     1.68983 
H       3.105   -0.152745    -1.80775 
H     3.43869     1.81961    0.360248 
H     3.08109     2.16694    -1.34589 
C     -3.6672    -1.37657   -0.164273 
H    -4.51308     1.14426    0.551078 
C    -4.70245    -1.22528    -1.28803 
C    -4.34318    -1.78089     1.15352 
C     5.04274   -0.470573    0.082212 
H   -0.632495     2.98517    0.372804 
C      3.3796     -2.3099   -0.265847 
H     3.65195    -1.29951     2.28338 
H    -2.95077    -2.14798   -0.445794 
H    -5.23689    -2.16397    -1.43723 
H    -4.22295   -0.947802    -2.22634 
H    -5.43766   -0.457057    -1.03952 
H    -5.07067    -1.02871     1.46558 
H    -3.60909    -1.89651     1.95051 
H    -4.87214    -2.72653     1.03108 
H     5.22776    0.546275    0.432414 
H     5.40396   -0.553224   -0.945229 
H     5.63351    -1.14593    0.702763 
H     3.75633    -2.45793    -1.28025 
H     3.93286    -2.97143     0.40315 
