38

C     3.75126    0.193188    0.320395 
C     2.76598   -0.266669    -0.77819 
C     2.28977    -1.73893   -0.666207 
O    0.856087    -1.63202   -0.377584 
N     1.50276    0.527727   -0.717167 
C    0.545005   -0.273361   -0.477223 
C   -0.877867    0.045342   -0.277105 
N    -1.21885     1.35085   -0.277344 
C    -2.50958     1.66912    -0.09654 
C    -3.50015    0.697477     0.09107 
C    -3.12902   -0.641755     0.09047 
O    -4.00434     -1.6904    0.265079 
C    -5.40079    -1.39233    0.461779 
C    -1.79018   -0.981227   -0.095664 
C     4.09331     1.66932    0.075949 
C     3.12154    0.039047     1.71039 
C     5.03205   -0.647516    0.222963 
H     3.23422   -0.079682    -1.74521 
H      2.4062    -2.29083    -1.59492 
H     2.75173    -2.28669    0.148752 
C    -2.84527     3.13313   -0.104561 
H    -4.52358     1.00657    0.231662 
H    -5.81346   -0.868805   -0.401447 
H    -5.54931   -0.795436     1.36243 
H    -5.89011    -2.35255    0.574994 
H     -1.4838    -2.01386   -0.098137 
H    -2.54023     3.57717    -1.05129 
H    -3.91066     3.30068     0.04003 
H    -2.29479     3.64362    0.684853 
H     4.78459     2.02549    0.841839 
H     4.56802     1.79926   -0.899066 
H     3.18994      2.2759    0.100033 
H     2.23985    0.673205      1.8028 
H     3.84021    0.337093     2.47543 
H     2.82748   -0.992558     1.91395 
H     5.47101   -0.572725   -0.774363 
H     4.84807     -1.7008     0.44104 
H     5.76691   -0.284775    0.943103 
