41

C    -3.84582    -1.25218    0.308407 
C    -3.25312    -0.29586   -0.751496 
C    -3.64771     1.19601   -0.590701 
O    -2.38406     1.87056   -0.273537 
N    -1.76145   -0.285571   -0.676423 
C     -1.3891    0.896996   -0.394603 
C   -0.021036      1.3899   -0.167993 
N    0.962552    0.476832   -0.170801 
C     2.23367    0.874917    0.026244 
C     2.54501     2.22856    0.214599 
C     1.52135     3.16398    0.230634 
H     1.74336     4.21107    0.377363 
C     4.52927    0.005754    0.586717 
C    0.208194     2.74788    0.040014 
C    -3.33845    -2.67115    0.017204 
C     -3.4101   -0.834099     1.71819 
C    -5.37684     -1.2282    0.197741 
H     -3.5376    -0.67125    -1.73509 
H     -4.0399     1.62934    -1.50661 
H    -4.33536     1.37958    0.228446 
C     3.27197    -0.18501    0.005733 
H     3.57074      2.5421    0.329865 
C     5.48695    -1.00231    0.545149 
C     5.19909    -2.21447   -0.075332 
C     3.94435    -2.41545   -0.646736 
H   -0.619064     3.43872    0.042133 
C     2.98556    -1.41094   -0.603562 
H     -3.7201    0.185332     1.95674 
H    -2.32651     -0.8972     1.81792 
H    -3.86141    -1.49964     2.45563 
H      4.7614    0.931107     1.09494 
H     6.45284   -0.843652     1.00341 
H     5.94369    -2.99711   -0.108473 
H      3.7127    -3.35658    -1.12492 
H     2.00399    -1.55605    -1.02973 
H    -2.25103     -2.6993    0.053556 
H    -3.73883     -3.3705    0.753253 
H    -3.65778    -2.99965   -0.974261 
H    -5.79028   -0.249487    0.446708 
H    -5.80776    -1.95383    0.889037 
H    -5.69788    -1.49216     -0.8123 
