49

C     4.15918   -0.153998    0.334671 
C     3.00115    0.285041   -0.588299 
C     2.10724      1.4265   -0.022386 
N    0.752192    0.860966   -0.152933 
N     2.07121   -0.854778   -0.850873 
C    0.875635   -0.456764   -0.599718 
C   -0.300886    -1.35825   -0.634164 
N   -0.561298    -1.99833     -1.7939 
C    -1.60693    -2.83841    -1.80613 
C    -2.42432    -3.07851     -0.7046 
C    -2.14006    -2.40095    0.478365 
O      -2.857     -2.5361     1.64495 
C    -3.97996    -3.44029     1.65811 
C    -1.06133    -1.52074    0.512548 
H     5.38576   -0.856245    -1.31898 
H     4.31858    -2.08668   -0.631725 
H     5.78368    -1.58793     0.24179 
H     3.44136    0.581105    -1.54401 
H     2.34218     1.65032     1.01907 
H     2.18511     2.34843   -0.598637 
H    -1.79766     -3.3381    -2.74416 
H    -3.24678    -3.77013    -0.78956 
H    -4.38313    -3.38916     2.66258 
H    -3.66142    -4.46044     1.44103 
H    -4.73979    -3.12858    0.940586 
H   -0.837855   -0.978861      1.4189 
C    -3.91953     4.19628   -0.022802 
C    -2.68646     3.32945   -0.073575 
C    -2.59297      2.2639   -0.972203 
C     -1.4706     1.44747    -1.01972 
C    -1.60603     3.55595    0.779569 
C   -0.484177     2.73538    0.758774 
C    -0.40594     1.66332   -0.135538 
C     5.06853     1.05313    0.603835 
C     4.96252    -1.24323   -0.389443 
C     3.61975   -0.718526     1.65474 
H    -3.69071     5.18139      0.3819 
H    -4.68801     3.74797    0.610453 
H    -4.34768     4.32899    -1.01618 
H    -3.40452     2.08261    -1.66524 
H    -1.40704    0.660089    -1.75665 
H    -1.64351     4.38278     1.47698 
H     0.33296     2.92053     1.44153 
H     5.93148    0.743892     1.19575 
H     5.43574     1.47781   -0.333168 
H     4.54984     1.83775     1.15772 
H     2.98709    -1.58513     1.46288 
H     4.45058    -1.02869     2.29081 
H     3.03611    0.019628     2.20845 
