49

C     5.56459     1.47566   -0.299388 
C     3.30359     1.24023    0.771081 
C     3.12279   -0.268171    0.433245 
N     1.67644   -0.359278    0.137679 
N     1.91612     1.79312     0.85047 
C     1.10513    0.868918    0.480111 
C   -0.343668     1.09227    0.271657 
N    -1.03323      1.6809     1.26779 
C     -2.3361     1.92529     1.07237 
C    -2.98943     1.58823   -0.109184 
C    -2.28114    0.971978     -1.1319 
O   -0.980453    -5.28233    0.343613 
C   -0.644507    -6.35026   -0.560401 
C   -0.931943    0.715593   -0.934819 
H     5.59523    0.444832   -0.655457 
H     6.01731     1.51075    0.693861 
H     6.17968      2.0758   -0.971641 
H      3.7796     1.37261     1.74359 
H      3.4328    0.906442    -2.00573 
H     2.49196     2.36361    -1.64535 
H    -2.86554     2.39733     1.88725 
C    -4.44001     1.89376   -0.236745 
H    0.395329    -6.65713   -0.436349 
H   -0.820357    -6.05731    -1.59675 
H    -1.30008    -7.17285     -0.2989 
H   -0.335135    0.230036    -1.69214 
C     4.18353     3.50497    0.174491 
C     4.13514     2.03501   -0.265577 
C     1.00026     -1.6084    0.180522 
C     1.35461    -2.60946   -0.718842 
C      0.7276    -3.85381   -0.689954 
C   -0.283578    -4.08923    0.237479 
C   -0.647279     -3.0919     1.14229 
C    -0.00174    -1.86778     1.12585 
F    -4.95193     1.51279    -1.45626 
F    -4.70564     3.24038   -0.095631 
F    -5.19484     1.25764    0.728342 
C     3.49658     1.93949    -1.65735 
H     4.64858     3.59713     1.15833 
H     4.77055     4.08947   -0.536244 
H     3.17847     3.91748    0.233366 
H     3.71892   -0.578813   -0.422333 
H     3.36535    -0.91393     1.27931 
H     2.12189    -2.40957    -1.45389 
H      1.0261    -4.61301     -1.3961 
H    -1.42514    -3.30879     1.85881 
H   -0.264007    -1.10862     1.85018 
H    -2.77312    0.699942    -2.05348 
H     4.09508      2.4985    -2.37849 
