50

C    -4.38494    -1.43454   -0.091003 
C    -3.79661   -0.303351   -0.964708 
C    -4.30778     1.12363   -0.632442 
O    -3.11701     1.82859   -0.145209 
N     -2.3179   -0.210611   -0.779691 
C    -2.04875    0.944957   -0.322329 
C   -0.738128     1.47999    0.079124 
N    0.323808    0.671017   -0.085481 
C    0.615935     3.20602     1.01966 
C     1.71439     2.37337    0.862722 
C     1.53933     1.10489    0.295918 
C     2.68771    0.176102    0.113001 
H     1.20762   -0.759534     2.30557 
C    -0.63908     2.75938    0.619831 
C    -3.76268    -2.76449    -0.53794 
H     1.71809    -2.44077     2.10918 
C    -5.90429    -1.48819   -0.304392 
H    -3.98971   -0.553883    -2.00843 
H    -4.67792     1.65271    -1.50614 
H    -5.05268     1.14769    0.156436 
H    0.730769     4.18812     1.45529 
H     2.69966     2.68154     1.17977 
H      0.6091    -1.68872    0.946032 
C     3.75019    -1.93719    0.580095 
C     2.66196    -1.08462    0.739287 
H    -1.52345     3.36675    0.725287 
C     1.48318    -1.52181      1.5749 
C     4.85606    -1.58241   -0.193922 
C     6.01157    -2.53805   -0.357899 
C     4.85346   -0.339002   -0.815718 
C     3.78683    0.552144   -0.672397 
C     3.83966     1.87837      -1.398 
C    -4.06702    -1.19507     1.39021 
H    -4.15488    -3.58381    0.067144 
H    -3.99951    -2.96947    -1.58417 
H    -2.67978     -2.7302   -0.433384 
H     3.73481     -2.9043     1.06837 
H     6.41462    -2.83479    0.611291 
H     5.69621    -3.44608   -0.874346 
H     6.81616    -2.08501   -0.934885 
H     5.69554   -0.052954    -1.43414 
H     4.53679     1.82006    -2.23232 
H     2.86328     2.16201    -1.78864 
H     4.17803     2.68477   -0.744514 
H    -4.45762   -0.238451      1.7431 
H    -4.51841    -1.98232     1.99597 
H    -2.98981    -1.20958     1.55705 
H    -6.14388    -1.62241    -1.36148 
H    -6.39977   -0.582673    0.049593 
H    -6.32446    -2.33105    0.246237 
