31

C     2.83427    0.397612    0.197295 
C     1.82965   -0.261728   -0.774887 
C     1.43716    -1.72271   -0.431067 
O    0.011138    -1.64307   -0.096285 
N    0.529976    0.473842   -0.766702 
C   -0.374251   -0.327399   -0.371749 
C    -1.80215   -0.052055   -0.151015 
N    -2.21678     1.21694   -0.326804 
C    -3.51552     1.48727   -0.127471 
C    -4.44348    0.520139    0.252116 
C    -4.00476   -0.785874    0.432696 
H     -4.6948    -1.56301    0.727503 
H      3.0056    0.857233     2.30248 
C    -2.66135    -1.08218    0.229795 
C     3.08837     1.83647   -0.272584 
C     2.27214      0.4187     1.62408 
C     4.15205    -0.38903    0.158578 
H      2.2468   -0.195348    -1.78029 
H     1.54767    -2.39829    -1.27482 
H     1.95827    -2.12297    0.432552 
H    -3.80926     2.51502   -0.278734 
H    -5.47806    0.790259     0.40001 
H     1.36339     1.01895     1.66816 
H     2.04131   -0.584659     1.98775 
H     3.51431     1.84469    -1.27823 
H    -2.27211    -2.07935     0.35827 
H     3.79174     2.33116    0.399547 
H     2.15676     2.39888   -0.291194 
H     4.89642    0.108096    0.782211 
H      4.0332    -1.40666    0.534293 
H      4.5444   -0.440147   -0.859432 
