45

C     4.28922    -1.67779    0.318604 
C     3.86501   -0.639794   -0.745328 
C     4.50236    0.766011   -0.588171 
O     3.36966     1.64055   -0.265195 
N     2.39597   -0.380601   -0.672206 
C     2.22587    0.847167   -0.388684 
C     0.95895     1.56087   -0.161605 
N   -0.164077    0.826038   -0.181313 
C    -1.35262      1.4288    0.014478 
C    -1.43202     2.81417    0.219595 
C   -0.265979     3.56299    0.254819 
H   -0.309735     4.63061    0.414926 
C     3.54941    -2.99222    0.034585 
C    0.960483     2.93489    0.063983 
H     3.80659    -3.37378   -0.955939 
C     5.80218    -1.91298    0.206812 
H     6.07237     -2.2325   -0.802059 
H     4.08377    -1.06051    -1.72737 
H     5.21562    0.833464    0.226833 
H     4.95567      1.1279    -1.50696 
C    -2.55045    0.559173    -0.02561 
H    -2.39079     3.29562    0.333042 
C    -3.76821    0.948743    0.528295 
C    -4.88665    0.118556     0.47468 
C    -4.78341    -1.12446   -0.142543 
H     1.89185     3.47695     0.07908 
O    -5.83056    -2.02386   -0.254536 
C    -7.10825    -1.65557    0.294793 
C    -3.56729     -1.5347   -0.691936 
C    -2.46484    -0.70473   -0.629611 
C     3.93266    -1.18597     1.72694 
H     2.47287    -2.83687    0.072621 
H     3.82803     -3.7459    0.773169 
H    -3.86002     1.90014     1.03318 
H    -5.81285    0.447595     0.91958 
H    -7.76722     -2.4918    0.090922 
H    -7.04129    -1.49627     1.37219 
H    -7.49755   -0.756608   -0.185896 
H    -3.51894    -2.50706    -1.15852 
H    -1.51493    -1.01506    -1.03865 
H      4.2665    -1.91494     2.46697 
H     2.85415    -1.06499     1.82842 
H     4.41052   -0.232419     1.96059 
H     6.37519    -1.01675    0.450169 
H     6.10559    -2.69739    0.901626 
