35

C     3.49518    0.071459    0.295413 
C     2.44692   -0.246979   -0.794851 
C     1.78454    -1.64597   -0.688023 
O    0.376624    -1.35643   -0.395245 
N     1.29915    0.704613   -0.714251 
C    0.246019    0.034745    -0.47685 
C     -1.1223    0.533562   -0.261767 
N    -1.29689     1.86385    -0.25258 
C    -2.54852     2.32008   -0.052904 
C    -3.64221     1.49354     0.14155 
C    -3.44098    0.114573    0.130556 
O    -4.55239   -0.672097    0.328249 
C    -4.38583    -2.10544    0.327076 
C     -2.1584   -0.383376   -0.073652 
C     4.02712     1.49081    0.054256 
C     2.86436     -0.0066     1.69118 
C     4.65213   -0.930944    0.179827 
H     2.92545   -0.114123    -1.76573 
H     1.82712    -2.20443    -1.61904 
H     2.17401    -2.25166    0.123856 
H    -2.66075     3.39341   -0.051078 
H    -4.63406     1.88612    0.299903 
H    -4.00605    -2.45222   -0.634361 
H    -5.37507    -2.51267    0.499393 
H    -3.71281    -2.41964     1.12528 
H    -1.93444    -1.43656   -0.092152 
H     3.21277     2.21196    0.091029 
H     4.76706     1.74755    0.814351 
H     4.50527     1.56271   -0.925041 
H      3.6237    0.188755     2.44992 
H     2.43845     -0.9916     1.89314 
H     2.07569    0.738392     1.79641 
H     5.43571   -0.673014    0.893671 
H     5.08733   -0.908809   -0.821674 
H     4.33267    -1.95198    0.395076 
