33

C     3.18499   -0.125848    0.269791 
C     1.94807   -0.687285    0.931569 
C     1.36913    -1.93819    0.209845 
O   -0.065228    -1.65144    0.110727 
N    0.813771    0.280774    0.946106 
C   -0.216218   -0.319848    0.503884 
C    -1.58064    0.210169    0.361179 
N    -1.78015     1.49732    0.721798 
C     -3.0193     1.98236    0.593848 
C    -4.10072     1.24112    0.116197 
C    -3.87186   -0.080687   -0.249411 
O    -4.83545   -0.933406   -0.736437 
C    -6.18015   -0.434245   -0.884163 
C    -2.58679   -0.608754   -0.125752 
C     4.31052   -0.941903    0.127839 
C     3.22632      1.1844    -0.20067 
H     4.28792    -1.95888    0.501304 
H     2.18005   -0.921336     1.97271 
H     1.76832    -2.04612    -0.79584 
H      1.4898    -2.86014    0.768466 
H    -3.15442      3.0126    0.887322 
H    -5.07256     1.70139    0.042062 
H    -6.75673    -1.26322    -1.27708 
H    -6.21103    0.400488    -1.58536 
H    -6.58904   -0.125214    0.078484 
H    -2.39141    -1.63081    -0.40547 
C     5.46147   -0.456474   -0.482568 
C     5.49786    0.853409   -0.956935 
C     4.38066     1.66959   -0.812408 
H     6.32679     -1.0957   -0.587522 
H     6.39144      1.2332    -1.43155 
H     4.40482     2.68753    -1.17517 
H     2.35609     1.81139   -0.075458 
