36                                     
                                       
C    -1.74982    1.341443    -0.179861 
N    -1.615914   0.299439    0.691147  
O    -2.823873   1.639784    -0.658025 
C    -0.48672    2.135181    -0.480504 
H    -0.633506   2.535863    -1.484143 
H    -0.476808   2.98814     0.202119  
C    0.80198     1.364826    -0.378969 
C    1.812389    1.743827    0.48942   
C    1.004008    0.225616    -1.16756  
C    3.006522    1.031577    0.579272  
H    1.678269    2.62025     1.113021  
C    2.176882    -0.494225   -1.088684 
H    0.218528    -0.104577   -1.839656 
C    3.191407    -0.092787   -0.215568 
H    3.771763    1.363973    1.265124  
H    2.33812     -1.374725   -1.696252 
O    4.308365    -0.858983   -0.212018 
H    -0.681127   -0.014972   0.894983  
C    -2.696635   -0.635333   0.849346  
C    -3.970762   -0.123421   1.515185  
H    -2.309867   -1.504371   1.386719  
C    -5.038761   -0.998669   0.857267  
H    -4.117104   0.921066    1.252493  
H    -3.960125   -0.230673   2.597484  
H    -5.220993   -1.918003   1.417419  
H    -5.983311   -0.484193   0.701011  
C    -3.200194   -1.163372   -0.501598 
O    -4.524567   -1.360298   -0.432258 
O    -2.539826   -1.410488   -1.460573 
C    5.37438     -0.485636   0.642506  
H    5.029063    -0.483846   1.68195   
H    5.706896    0.527631    0.393361  
C    6.489489    -1.484811   0.444995  
H    7.334145    -1.234923   1.086757  
H    6.14735     -2.488994   0.692717  
H    6.824333    -1.47913    -0.59161  
