36                                     
                                       
C    0.010239    1.084167    0.447244  
C    0.096649    2.36644     -0.407706 
C    1.22056     0.189296    0.245454  
C    2.192279    0.063993    1.233691  
C    3.319821    -0.721281   1.05073   
C    3.493258    -1.402111   -0.145843 
C    2.534176    -1.292866   -1.146141 
C    1.411039    -0.50628    -0.944056 
H    0.664349    -0.444726   -1.727273 
H    2.663565    -1.829849   -2.079574 
O    4.614271    -2.163649   -0.28506  
H    4.614277    -2.58302    -1.150577 
H    4.071945    -0.817453   1.822285  
H    2.068394    0.598026    2.169153  
C    -1.272999   0.293864    0.258316  
C    -1.93473    0.197938    -0.964538 
C    -3.071961   -0.578668   -1.116309 
C    -3.575794   -1.283864   -0.031677 
C    -2.93576    -1.201377   1.197812  
C    -1.798308   -0.41957    1.330151  
H    -1.302085   -0.368527   2.292909  
H    -3.326567   -1.746343   2.05014   
O    -4.697126   -2.031642   -0.228606 
H    -4.941935   -2.468809   0.592357  
H    -3.584133   -0.645953   -2.066843 
H    -1.56908    0.748742    -1.822684 
H    0.030277    1.412455    1.492837  
C    1.40995     3.102254    -0.153527 
C    -1.081355   3.29517     -0.124124 
H    0.076899    2.076392    -1.463781 
H    1.50075     3.361085    0.905527  
H    2.275493    2.499376    -0.426416 
H    1.444014    4.02997     -0.72646  
H    -2.041221   2.820125    -0.323265 
H    -1.070559   3.59959     0.926156  
H    -1.013927   4.19861     -0.732027 
