13                                     
                                       
C    -1.243425   -0.776018   -0.153593 
O    -1.455227   0.553959    -0.263944 
C    -0.227997   1.17528     0.157469  
C    0.707486    -0.010891   0.486998  
N    -0.130727   -1.199199   0.251437  
H    -2.087978   -1.3918     -0.436314 
H    -0.445225   1.810749    1.014712  
H    0.995469    -0.002807   1.539896  
H    0.143787    1.788736    -0.664211 
C    1.956181    -0.058968   -0.376714 
H    2.581479    0.818191    -0.201705 
H    2.536519    -0.95314    -0.153564 
H    1.679392    -0.08363    -1.43228  
