20                                     
                                       
C    -2.792111   -0.763609   0.119327  
O    -2.950083   0.279532    -0.722004 
C    -1.726079   1.028846    -0.627377 
C    -0.993337   0.393158    0.580949  
N    -1.771076   -0.824844   0.852844  
H    -3.595994   -1.488689   0.099341  
H    -1.972539   2.079286    -0.491857 
H    -1.071048   1.0379      1.460917  
H    -1.168689   0.895527    -1.555618 
C    0.466945    0.134385    0.309051  
C    1.369267    1.192579    0.376716  
C    0.925988    -1.124544   -0.05793  
C    2.708576    0.999604    0.073717  
H    1.020212    2.175013    0.676347  
C    2.268152    -1.319964   -0.356533 
H    0.228392    -1.951036   -0.091525 
C    3.161496    -0.260287   -0.294921 
H    3.400086    1.83027     0.131835  
H    2.617259    -2.306156   -0.634661 
H    4.20713     -0.415469   -0.526651 
